41 41 41
Available num physical pages: 35184372088576
WARNING: physical memory size is smaller than virtual memory size

*** ChampSim Multicore Out-of-Order Simulator ***

Warmup Instructions: 20000000
Simulation Instructions: 50000000
Number of CPUs: 1
Page size: 4096

Basic BTB sets: 1024 ways: 8 indirect buffer size: 4096 RAS size: 64
cpu0_L1D Gaze NEW NEW prefetcher
Pattern Table index_len: 6
Off-chip DRAM Size: 32 GiB Channels: 4 Width: 64-bit Data Rate: 3200 MT/s
Heartbeat CPU 0 instructions: 10000003 cycles: 2603739 heartbeat IPC: 3.84064 cumulative IPC: 3.84064 (Simulation time: 0 hr 0 min 11 sec) 
Heartbeat CPU 0 instructions: 20000003 cycles: 5177057 heartbeat IPC: 3.88604 cumulative IPC: 3.8632 (Simulation time: 0 hr 0 min 31 sec) 
Max paddr 49M
Warmup finished CPU 0 instructions: 20000003 cycles: 5177058 cumulative IPC: 3.8632 (Simulation time: 0 hr 0 min 31 sec) 

Warmup complete CPU 0 instructions: 20000003 cycles: 5177058 (Simulation time: 0 hr 0 min 31 sec) 

Heartbeat CPU 0 instructions: 30000004 cycles: 12043611 heartbeat IPC: 1.45634 cumulative IPC: 1.45634 (Simulation time: 0 hr 1 min 4 sec) 
*** Reached end of trace: /Users/srikarkopanati/Documents/project/Gaze-Spatial-Prefetcher/traces/compute_fp_1_new.xz
Heartbeat CPU 0 instructions: 40000000 cycles: 21389832 heartbeat IPC: 1.06996 cumulative IPC: 1.2336 (Simulation time: 0 hr 1 min 25 sec) 
Heartbeat CPU 0 instructions: 50000000 cycles: 28839204 heartbeat IPC: 1.3424 cumulative IPC: 1.26785 (Simulation time: 0 hr 1 min 51 sec) 
Heartbeat CPU 0 instructions: 60000001 cycles: 35598277 heartbeat IPC: 1.4795 cumulative IPC: 1.31488 (Simulation time: 0 hr 2 min 25 sec) 
*** Reached end of trace: /Users/srikarkopanati/Documents/project/Gaze-Spatial-Prefetcher/traces/compute_fp_1_new.xz
Heartbeat CPU 0 instructions: 70000001 cycles: 44899773 heartbeat IPC: 1.0751 cumulative IPC: 1.25873 (Simulation time: 0 hr 2 min 45 sec) 
Max paddr 68M
Simulation finished CPU 0 instructions: 50000001 cycles: 39722717 cumulative IPC: 1.25873 (Simulation time: 0 hr 2 min 45 sec) 

Simulation complete CPU 0 instructions: 50000001 cycles: 39722717 (Simulation time: 0 hr 2 min 45 sec) 


ChampSim completed all CPUs

[
  {
    "name": "Simulation",
    "traces": [
      "/Users/srikarkopanati/Documents/project/Gaze-Spatial-Prefetcher/traces/compute_fp_1_new.xz"
    ],
    "roi": {
      "cores": [
        {
          "instructions": 50000001,
          "cycles": 39722717,
          "Avg ROB occupancy at mispredict": 29.9209, 
          "mispredict": {
            "BRANCH_DIRECT_JUMP": 3,
            "BRANCH_INDIRECT": 31819,
            "BRANCH_CONDITIONAL": 368171,
            "BRANCH_DIRECT_CALL": 0,
            "BRANCH_INDIRECT_CALL": 25,
            "BRANCH_RETURN": 2
          }
        }
      ],
      "cpu0_L1I": {
        "LOAD": {
          "hit":2085,
          "miss":1553
        },
        "RFO": {
          "hit":0,
          "miss":0
        },
        "PREFETCH": {
          "hit":0,
          "miss":0
        },
        "WRITE": {
          "hit":0,
          "miss":0
        },
        "TRANSLATION": {
          "hit":0,
          "miss":0
        },
        "mshr full": 0,
        "prefetch requested": 0,
        "prefetch issued": 0,
        "prefetch filled": 0,
        "prefetch useful": 0,
        "prefetch useless": 0,
        "prefetch late": 0,
        "pf_useful_at_l2_from_l1":          0,
        "pf_late_at_l2_from_l1":          0,
        "pf_useless_at_l2_from_l1":          0,
        "pf_at_l2_to_l1":          0,
        "pf_fill_this_level":          0,
        "miss latency": 5.92084,
        "cache queues": {
          "PQ_ACCESS": 0,
          "PQ_FULL": 0,
          "PQ_TO_CACHE": 0,
          "PQ_MERGED": 0,
          "RQ_ACCESS": 3682,
          "RQ_MERGED": 44,
          "RQ_FULL": 0,
          "WQ_ACCESS": 0,
          "WQ_MERGED": 0,
          "WQ_FULL": 0
        }
      },
      "cpu0_ITLB": {
        "LOAD": {
          "hit":2580,
          "miss":424
        },
        "RFO": {
          "hit":0,
          "miss":0
        },
        "PREFETCH": {
          "hit":0,
          "miss":0
        },
        "WRITE": {
          "hit":0,
          "miss":0
        },
        "TRANSLATION": {
          "hit":0,
          "miss":0
        },
        "mshr full": 0,
        "prefetch requested": 0,
        "prefetch issued": 0,
        "prefetch filled": 0,
        "prefetch useful": 0,
        "prefetch useless": 0,
        "prefetch late": 0,
        "pf_useful_at_l2_from_l1":          0,
        "pf_late_at_l2_from_l1":          0,
        "pf_useless_at_l2_from_l1":          0,
        "pf_at_l2_to_l1":          0,
        "pf_fill_this_level":          0,
        "miss latency": 2.87147,
        "cache queues": {
          "PQ_ACCESS": 0,
          "PQ_FULL": 0,
          "PQ_TO_CACHE": 0,
          "PQ_MERGED": 0,
          "RQ_ACCESS": 3004,
          "RQ_MERGED": 0,
          "RQ_FULL": 0,
          "WQ_ACCESS": 0,
          "WQ_MERGED": 0,
          "WQ_FULL": 0
        }
      },
      "cpu0_DTLB": {
        "LOAD": {
          "hit":16374135,
          "miss":1087472
        },
        "RFO": {
          "hit":0,
          "miss":0
        },
        "PREFETCH": {
          "hit":0,
          "miss":0
        },
        "WRITE": {
          "hit":0,
          "miss":0
        },
        "TRANSLATION": {
          "hit":0,
          "miss":0
        },
        "mshr full": 4485,
        "prefetch requested": 0,
        "prefetch issued": 0,
        "prefetch filled": 0,
        "prefetch useful": 0,
        "prefetch useless": 0,
        "prefetch late": 0,
        "pf_useful_at_l2_from_l1":          0,
        "pf_late_at_l2_from_l1":          0,
        "pf_useless_at_l2_from_l1":          0,
        "pf_at_l2_to_l1":          0,
        "pf_fill_this_level":          0,
        "miss latency": 0.269235,
        "cache queues": {
          "PQ_ACCESS": 0,
          "PQ_FULL": 0,
          "PQ_TO_CACHE": 0,
          "PQ_MERGED": 0,
          "RQ_ACCESS": 18829802,
          "RQ_MERGED": 0,
          "RQ_FULL": 1368204,
          "WQ_ACCESS": 0,
          "WQ_MERGED": 0,
          "WQ_FULL": 0
        }
      },
      "cpu0_STLB": {
        "LOAD": {
          "hit":146167,
          "miss":56734
        },
        "RFO": {
          "hit":0,
          "miss":0
        },
        "PREFETCH": {
          "hit":0,
          "miss":0
        },
        "WRITE": {
          "hit":0,
          "miss":0
        },
        "TRANSLATION": {
          "hit":0,
          "miss":0
        },
        "mshr full": 0,
        "prefetch requested": 0,
        "prefetch issued": 0,
        "prefetch filled": 0,
        "prefetch useful": 0,
        "prefetch useless": 0,
        "prefetch late": 0,
        "pf_useful_at_l2_from_l1":          0,
        "pf_late_at_l2_from_l1":          0,
        "pf_useless_at_l2_from_l1":          0,
        "pf_at_l2_to_l1":          0,
        "pf_fill_this_level":          0,
        "miss latency": 3.31891,
        "cache queues": {
          "PQ_ACCESS": 0,
          "PQ_FULL": 0,
          "PQ_TO_CACHE": 0,
          "PQ_MERGED": 0,
          "RQ_ACCESS": 202901,
          "RQ_MERGED": 0,
          "RQ_FULL": 0,
          "WQ_ACCESS": 0,
          "WQ_MERGED": 0,
          "WQ_FULL": 0
        }
      },
      "cpu0_L1D": {
        "LOAD": {
          "hit":5361131,
          "miss":9091608
        },
        "RFO": {
          "hit":0,
          "miss":0
        },
        "PREFETCH": {
          "hit":241120,
          "miss":1871404
        },
        "WRITE": {
          "hit":3456184,
          "miss":152228
        },
        "TRANSLATION": {
          "hit":28012,
          "miss":29241
        },
        "mshr full": 4651308,
        "prefetch requested": 2144566,
        "prefetch issued": 2144566,
        "prefetch filled": 778422,
        "prefetch useful": 763828,
        "prefetch useless": 193075,
        "prefetch late": 178606,
        "pf_useful_at_l2_from_l1":          0,
        "pf_late_at_l2_from_l1":          0,
        "pf_useless_at_l2_from_l1":          0,
        "pf_at_l2_to_l1":       1115,
        "pf_fill_this_level":     772319,
        "miss latency": 1.56998,
        "cache queues": {
          "PQ_ACCESS": 2144566,
          "PQ_FULL": 0,
          "PQ_TO_CACHE": 2144566,
          "PQ_MERGED": 32057,
          "RQ_ACCESS": 36159769,
          "RQ_MERGED": 34793,
          "RQ_FULL": 21672278,
          "WQ_ACCESS": 3615142,
          "WQ_MERGED": 0,
          "WQ_FULL": 6731
        }
      },
      "cpu0_L2C": {
        "LOAD": {
          "hit":179056,
          "miss":1536674
        },
        "RFO": {
          "hit":7724,
          "miss":18751
        },
        "PREFETCH": {
          "hit":396276,
          "miss":1103743
        },
        "WRITE": {
          "hit":975568,
          "miss":0
        },
        "TRANSLATION": {
          "hit":9572,
          "miss":19669
        },
        "mshr full": 788171,
        "prefetch requested": 0,
        "prefetch issued": 0,
        "prefetch filled": 1043889,
        "prefetch useful": 0,
        "prefetch useless": 0,
        "prefetch late": 0,
        "pf_useful_at_l2_from_l1":     104504,
        "pf_late_at_l2_from_l1":      43830,
        "pf_useless_at_l2_from_l1":      62567,
        "pf_at_l2_to_l1":     377304,
        "pf_fill_this_level":     501330,
        "miss latency": 9.55983,
        "cache queues": {
          "PQ_ACCESS": 1780625,
          "PQ_FULL": 279854,
          "PQ_TO_CACHE": 1500771,
          "PQ_MERGED": 752,
          "RQ_ACCESS": 1771471,
          "RQ_MERGED": 0,
          "RQ_FULL": 0,
          "WQ_ACCESS": 975570,
          "WQ_MERGED": 0,
          "WQ_FULL": 0
        }
      },
      "LLC": {
        "LOAD": {
          "hit": [655935],
          "miss": [836900]
        },
        "RFO": {
          "hit": [7790],
          "miss": [10961]
        },
        "PREFETCH": {
          "hit": [138899],
          "miss": [948819]
        },
        "WRITE": {
          "hit": [887581],
          "miss": [0]
        },
        "TRANSLATION": {
          "hit": [14688],
          "miss": [4981]
        },
        "mshr full": 0,
        "prefetch requested": 0,
        "prefetch issued": 0,
        "prefetch filled": 948819,
        "prefetch useful": 0,
        "prefetch useless": 0,
        "prefetch late": 0,
        "pf_useful_at_l2_from_l1":          0,
        "pf_late_at_l2_from_l1":          0,
        "pf_useless_at_l2_from_l1":          0,
        "pf_at_l2_to_l1":       2580,
        "pf_fill_this_level":          0,
        "miss latency": 13.1503,
        "cache queues": {
          "PQ_ACCESS": 1087719,
          "PQ_FULL": 0,
          "PQ_TO_CACHE": 1087719,
          "PQ_MERGED": 0,
          "RQ_ACCESS": 1531264,
          "RQ_MERGED": 0,
          "RQ_FULL": 0,
          "WQ_ACCESS": 887581,
          "WQ_MERGED": 0,
          "WQ_FULL": 0
        }
      },
      "DRAM": [
        {
          "RQ ROW_BUFFER_HIT": 264973,
          "RQ ROW_BUFFER_MISS": 184865,
          "PQ FULL": 0,
          "WQ ROW_BUFFER_HIT": 13047,
          "WQ ROW_BUFFER_MISS": 51086,
          "WQ FULL": 0,
          "AVG DBUS CONGESTED CYCLE": 3.75238
        },
        {
          "RQ ROW_BUFFER_HIT": 264246,
          "RQ ROW_BUFFER_MISS": 185588,
          "PQ FULL": 0,
          "WQ ROW_BUFFER_HIT": 12321,
          "WQ ROW_BUFFER_MISS": 51955,
          "WQ FULL": 0,
          "AVG DBUS CONGESTED CYCLE": 3.76158
        },
        {
          "RQ ROW_BUFFER_HIT": 264546,
          "RQ ROW_BUFFER_MISS": 185520,
          "PQ FULL": 0,
          "WQ ROW_BUFFER_HIT": 12310,
          "WQ ROW_BUFFER_MISS": 51722,
          "WQ FULL": 0,
          "AVG DBUS CONGESTED CYCLE": 3.75276
        },
        {
          "RQ ROW_BUFFER_HIT": 265568,
          "RQ ROW_BUFFER_MISS": 185566,
          "PQ FULL": 0,
          "WQ ROW_BUFFER_HIT": 12264,
          "WQ ROW_BUFFER_MISS": 51780,
          "WQ FULL": 0,
          "AVG DBUS CONGESTED CYCLE": 3.7569
        }
      ]

    },
    "sim": {
      "cores": [
        {
          "instructions": 50000001,
          "cycles": 39722717,
          "Avg ROB occupancy at mispredict": 29.9209, 
          "mispredict": {
            "BRANCH_DIRECT_JUMP": 3,
            "BRANCH_INDIRECT": 31819,
            "BRANCH_CONDITIONAL": 368171,
            "BRANCH_DIRECT_CALL": 0,
            "BRANCH_INDIRECT_CALL": 25,
            "BRANCH_RETURN": 2
          }
        }
      ],
      "cpu0_L1I": {
        "LOAD": {
          "hit":2085,
          "miss":1553
        },
        "RFO": {
          "hit":0,
          "miss":0
        },
        "PREFETCH": {
          "hit":0,
          "miss":0
        },
        "WRITE": {
          "hit":0,
          "miss":0
        },
        "TRANSLATION": {
          "hit":0,
          "miss":0
        },
        "mshr full": 0,
        "prefetch requested": 0,
        "prefetch issued": 0,
        "prefetch filled": 0,
        "prefetch useful": 0,
        "prefetch useless": 0,
        "prefetch late": 0,
        "pf_useful_at_l2_from_l1":          0,
        "pf_late_at_l2_from_l1":          0,
        "pf_useless_at_l2_from_l1":          0,
        "pf_at_l2_to_l1":          0,
        "pf_fill_this_level":          0,
        "miss latency": 5.92084,
        "cache queues": {
          "PQ_ACCESS": 0,
          "PQ_FULL": 0,
          "PQ_TO_CACHE": 0,
          "PQ_MERGED": 0,
          "RQ_ACCESS": 3682,
          "RQ_MERGED": 44,
          "RQ_FULL": 0,
          "WQ_ACCESS": 0,
          "WQ_MERGED": 0,
          "WQ_FULL": 0
        }
      },
      "cpu0_ITLB": {
        "LOAD": {
          "hit":2580,
          "miss":424
        },
        "RFO": {
          "hit":0,
          "miss":0
        },
        "PREFETCH": {
          "hit":0,
          "miss":0
        },
        "WRITE": {
          "hit":0,
          "miss":0
        },
        "TRANSLATION": {
          "hit":0,
          "miss":0
        },
        "mshr full": 0,
        "prefetch requested": 0,
        "prefetch issued": 0,
        "prefetch filled": 0,
        "prefetch useful": 0,
        "prefetch useless": 0,
        "prefetch late": 0,
        "pf_useful_at_l2_from_l1":          0,
        "pf_late_at_l2_from_l1":          0,
        "pf_useless_at_l2_from_l1":          0,
        "pf_at_l2_to_l1":          0,
        "pf_fill_this_level":          0,
        "miss latency": 2.87147,
        "cache queues": {
          "PQ_ACCESS": 0,
          "PQ_FULL": 0,
          "PQ_TO_CACHE": 0,
          "PQ_MERGED": 0,
          "RQ_ACCESS": 3004,
          "RQ_MERGED": 0,
          "RQ_FULL": 0,
          "WQ_ACCESS": 0,
          "WQ_MERGED": 0,
          "WQ_FULL": 0
        }
      },
      "cpu0_DTLB": {
        "LOAD": {
          "hit":16374135,
          "miss":1087472
        },
        "RFO": {
          "hit":0,
          "miss":0
        },
        "PREFETCH": {
          "hit":0,
          "miss":0
        },
        "WRITE": {
          "hit":0,
          "miss":0
        },
        "TRANSLATION": {
          "hit":0,
          "miss":0
        },
        "mshr full": 4485,
        "prefetch requested": 0,
        "prefetch issued": 0,
        "prefetch filled": 0,
        "prefetch useful": 0,
        "prefetch useless": 0,
        "prefetch late": 0,
        "pf_useful_at_l2_from_l1":          0,
        "pf_late_at_l2_from_l1":          0,
        "pf_useless_at_l2_from_l1":          0,
        "pf_at_l2_to_l1":          0,
        "pf_fill_this_level":          0,
        "miss latency": 0.269235,
        "cache queues": {
          "PQ_ACCESS": 0,
          "PQ_FULL": 0,
          "PQ_TO_CACHE": 0,
          "PQ_MERGED": 0,
          "RQ_ACCESS": 18829802,
          "RQ_MERGED": 0,
          "RQ_FULL": 1368204,
          "WQ_ACCESS": 0,
          "WQ_MERGED": 0,
          "WQ_FULL": 0
        }
      },
      "cpu0_STLB": {
        "LOAD": {
          "hit":146167,
          "miss":56734
        },
        "RFO": {
          "hit":0,
          "miss":0
        },
        "PREFETCH": {
          "hit":0,
          "miss":0
        },
        "WRITE": {
          "hit":0,
          "miss":0
        },
        "TRANSLATION": {
          "hit":0,
          "miss":0
        },
        "mshr full": 0,
        "prefetch requested": 0,
        "prefetch issued": 0,
        "prefetch filled": 0,
        "prefetch useful": 0,
        "prefetch useless": 0,
        "prefetch late": 0,
        "pf_useful_at_l2_from_l1":          0,
        "pf_late_at_l2_from_l1":          0,
        "pf_useless_at_l2_from_l1":          0,
        "pf_at_l2_to_l1":          0,
        "pf_fill_this_level":          0,
        "miss latency": 3.31891,
        "cache queues": {
          "PQ_ACCESS": 0,
          "PQ_FULL": 0,
          "PQ_TO_CACHE": 0,
          "PQ_MERGED": 0,
          "RQ_ACCESS": 202901,
          "RQ_MERGED": 0,
          "RQ_FULL": 0,
          "WQ_ACCESS": 0,
          "WQ_MERGED": 0,
          "WQ_FULL": 0
        }
      },
      "cpu0_L1D": {
        "LOAD": {
          "hit":5361131,
          "miss":9091608
        },
        "RFO": {
          "hit":0,
          "miss":0
        },
        "PREFETCH": {
          "hit":241120,
          "miss":1871404
        },
        "WRITE": {
          "hit":3456184,
          "miss":152228
        },
        "TRANSLATION": {
          "hit":28012,
          "miss":29241
        },
        "mshr full": 4651308,
        "prefetch requested": 2144566,
        "prefetch issued": 2144566,
        "prefetch filled": 778422,
        "prefetch useful": 763828,
        "prefetch useless": 193075,
        "prefetch late": 178606,
        "pf_useful_at_l2_from_l1":          0,
        "pf_late_at_l2_from_l1":          0,
        "pf_useless_at_l2_from_l1":          0,
        "pf_at_l2_to_l1":       1115,
        "pf_fill_this_level":     772319,
        "miss latency": 1.56998,
        "cache queues": {
          "PQ_ACCESS": 2144566,
          "PQ_FULL": 0,
          "PQ_TO_CACHE": 2144566,
          "PQ_MERGED": 32057,
          "RQ_ACCESS": 36159769,
          "RQ_MERGED": 34793,
          "RQ_FULL": 21672278,
          "WQ_ACCESS": 3615142,
          "WQ_MERGED": 0,
          "WQ_FULL": 6731
        }
      },
      "cpu0_L2C": {
        "LOAD": {
          "hit":179056,
          "miss":1536674
        },
        "RFO": {
          "hit":7724,
          "miss":18751
        },
        "PREFETCH": {
          "hit":396276,
          "miss":1103743
        },
        "WRITE": {
          "hit":975568,
          "miss":0
        },
        "TRANSLATION": {
          "hit":9572,
          "miss":19669
        },
        "mshr full": 788171,
        "prefetch requested": 0,
        "prefetch issued": 0,
        "prefetch filled": 1043889,
        "prefetch useful": 0,
        "prefetch useless": 0,
        "prefetch late": 0,
        "pf_useful_at_l2_from_l1":     104504,
        "pf_late_at_l2_from_l1":      43830,
        "pf_useless_at_l2_from_l1":      62567,
        "pf_at_l2_to_l1":     377304,
        "pf_fill_this_level":     501330,
        "miss latency": 9.55983,
        "cache queues": {
          "PQ_ACCESS": 1780625,
          "PQ_FULL": 279854,
          "PQ_TO_CACHE": 1500771,
          "PQ_MERGED": 752,
          "RQ_ACCESS": 1771471,
          "RQ_MERGED": 0,
          "RQ_FULL": 0,
          "WQ_ACCESS": 975570,
          "WQ_MERGED": 0,
          "WQ_FULL": 0
        }
      },
      "LLC": {
        "LOAD": {
          "hit": [655935],
          "miss": [836900]
        },
        "RFO": {
          "hit": [7790],
          "miss": [10961]
        },
        "PREFETCH": {
          "hit": [138899],
          "miss": [948819]
        },
        "WRITE": {
          "hit": [887581],
          "miss": [0]
        },
        "TRANSLATION": {
          "hit": [14688],
          "miss": [4981]
        },
        "mshr full": 0,
        "prefetch requested": 0,
        "prefetch issued": 0,
        "prefetch filled": 948819,
        "prefetch useful": 0,
        "prefetch useless": 0,
        "prefetch late": 0,
        "pf_useful_at_l2_from_l1":          0,
        "pf_late_at_l2_from_l1":          0,
        "pf_useless_at_l2_from_l1":          0,
        "pf_at_l2_to_l1":       2580,
        "pf_fill_this_level":          0,
        "miss latency": 13.1503,
        "cache queues": {
          "PQ_ACCESS": 1087719,
          "PQ_FULL": 0,
          "PQ_TO_CACHE": 1087719,
          "PQ_MERGED": 0,
          "RQ_ACCESS": 1531264,
          "RQ_MERGED": 0,
          "RQ_FULL": 0,
          "WQ_ACCESS": 887581,
          "WQ_MERGED": 0,
          "WQ_FULL": 0
        }
      },
      "DRAM": [
        {
          "RQ ROW_BUFFER_HIT": 264973,
          "RQ ROW_BUFFER_MISS": 184865,
          "PQ FULL": 0,
          "WQ ROW_BUFFER_HIT": 13047,
          "WQ ROW_BUFFER_MISS": 51086,
          "WQ FULL": 0,
          "AVG DBUS CONGESTED CYCLE": 3.75238
        },
        {
          "RQ ROW_BUFFER_HIT": 264246,
          "RQ ROW_BUFFER_MISS": 185588,
          "PQ FULL": 0,
          "WQ ROW_BUFFER_HIT": 12321,
          "WQ ROW_BUFFER_MISS": 51955,
          "WQ FULL": 0,
          "AVG DBUS CONGESTED CYCLE": 3.76158
        },
        {
          "RQ ROW_BUFFER_HIT": 264546,
          "RQ ROW_BUFFER_MISS": 185520,
          "PQ FULL": 0,
          "WQ ROW_BUFFER_HIT": 12310,
          "WQ ROW_BUFFER_MISS": 51722,
          "WQ FULL": 0,
          "AVG DBUS CONGESTED CYCLE": 3.75276
        },
        {
          "RQ ROW_BUFFER_HIT": 265568,
          "RQ ROW_BUFFER_MISS": 185566,
          "PQ FULL": 0,
          "WQ ROW_BUFFER_HIT": 12264,
          "WQ ROW_BUFFER_MISS": 51780,
          "WQ FULL": 0,
          "AVG DBUS CONGESTED CYCLE": 3.7569
        }
      ]

    }
  }
]
cpu0_ITLB
cpu0_DTLB
cpu0_STLB
Filter table begin
 ┌────────────────────┬────────────────────┬────────────────────┐
 | RegionNum          | Trigger            | PC                 |
 ├────────────────────┼────────────────────┼────────────────────┤
 | 0x0000000000001ace | 0x0000000000000000 | 0xffff0000080e92cc |
 ├────────────────────┼────────────────────┼────────────────────┤
 | 0x0000000000001af1 | 0x000000000000003a | 0xffff00000811aa8c |
 ├────────────────────┼────────────────────┼────────────────────┤
 | 0x0000000000000547 | 0x0000000000000002 | 0x00000000004306f8 |
 ├────────────────────┼────────────────────┼────────────────────┤
 | 0x0000000000000ea1 | 0x000000000000000d | 0x0000000000430614 |
 ├────────────────────┼────────────────────┼────────────────────┤
 | 0x0000000000000f03 | 0x000000000000000f | 0x00000000004307c8 |
 ├────────────────────┼────────────────────┼────────────────────┤
 | 0x0000000000001925 | 0x000000000000000e | 0x000000000043079c |
 ├────────────────────┼────────────────────┼────────────────────┤
 | 0x0000000000001ac7 | 0x000000000000003c | 0xffff000008088e70 |
 ├────────────────────┼────────────────────┼────────────────────┤
 | 0x0000000000000ea9 | 0x0000000000000021 | 0x0000000000430614 |
 ├────────────────────┼────────────────────┼────────────────────┤
 | 0x0000000000000b00 | 0x0000000000000038 | 0x0000000000430614 |
 ├────────────────────┼────────────────────┼────────────────────┤
 | 0x00000000000004db | 0x0000000000000000 | 0x00000000004306f8 |
 ├────────────────────┼────────────────────┼────────────────────┤
 | 0x0000000000000730 | 0x0000000000000031 | 0x00000000004306f8 |
 ├────────────────────┼────────────────────┼────────────────────┤
 | 0x0000000000001a9c | 0x0000000000000000 | 0xffff000008082c4c |
 ├────────────────────┼────────────────────┼────────────────────┤
 | 0x0000000000000adc | 0x0000000000000007 | 0x0000000000430614 |
 ├────────────────────┼────────────────────┼────────────────────┤
 | 0x0000000000001af0 | 0x0000000000000006 | 0xffff0000080c2ad8 |
 ├────────────────────┼────────────────────┼────────────────────┤
 | 0x0000000000000c29 | 0x0000000000000036 | 0x0000000000430614 |
 ├────────────────────┼────────────────────┼────────────────────┤
 | 0x0000000000000f83 | 0x0000000000000010 | 0x00000000004307c8 |
 ├────────────────────┼────────────────────┼────────────────────┤
 | 0x00000000000004d8 | 0x000000000000003f | 0x00000000004306f8 |
 ├────────────────────┼────────────────────┼────────────────────┤
 | 0x0000000000000934 | 0x0000000000000029 | 0x0000000000430600 |
 ├────────────────────┼────────────────────┼────────────────────┤
 | 0x0000000000001aa0 | 0x0000000000000015 | 0xffff000008108224 |
 ├────────────────────┼────────────────────┼────────────────────┤
 | 0x0000000000001aa9 | 0x0000000000000034 | 0xffff00000810823c |
 ├────────────────────┼────────────────────┼────────────────────┤
 | 0x0000000000000919 | 0x000000000000002d | 0x0000000000430600 |
 ├────────────────────┼────────────────────┼────────────────────┤
 | 0x00000000000008ba | 0x0000000000000000 | 0x000000000043590c |
 ├────────────────────┼────────────────────┼────────────────────┤
 | 0x0000000000000acc | 0x0000000000000016 | 0x00000000004305fc |
 ├────────────────────┼────────────────────┼────────────────────┤
 | 0x0000000000000fbd | 0x0000000000000012 | 0x00000000004307c8 |
 ├────────────────────┼────────────────────┼────────────────────┤
 | 0x0000000000001926 | 0x000000000000000e | 0x00000000004307a8 |
 ├────────────────────┼────────────────────┼────────────────────┤
 | 0x0000000000000918 | 0x000000000000001b | 0x0000000000430600 |
 ├────────────────────┼────────────────────┼────────────────────┤
 | 0x0000000000000eb9 | 0x0000000000000011 | 0x00000000004307c8 |
 ├────────────────────┼────────────────────┼────────────────────┤
 | 0x0000000000000781 | 0x000000000000002d | 0x00000000004306f8 |
 ├────────────────────┼────────────────────┼────────────────────┤
 | 0x0000000000000baa | 0x000000000000002d | 0x00000000004305fc |
 ├────────────────────┼────────────────────┼────────────────────┤
 | 0x0000000000000be2 | 0x000000000000002d | 0x0000000000430614 |
 ├────────────────────┼────────────────────┼────────────────────┤
 | 0x0000000000000ec0 | 0x000000000000000b | 0x00000000004307c8 |
 ├────────────────────┼────────────────────┼────────────────────┤
 | 0x0000000000001aaf | 0x0000000000000004 | 0xffff00000810ce78 |
 ├────────────────────┼────────────────────┼────────────────────┤
 | 0x0000000000000e7c | 0x0000000000000028 | 0x00000000004305fc |
 ├────────────────────┼────────────────────┼────────────────────┤
 | 0x00000000000016cd | 0x0000000000000007 | 0x00000000004307a8 |
 ├────────────────────┼────────────────────┼────────────────────┤
 | 0x0000000000001aef | 0x0000000000000028 | 0xffff0000080c2ea4 |
 ├────────────────────┼────────────────────┼────────────────────┤
 | 0x00000000000006e1 | 0x0000000000000011 | 0x00000000004306f8 |
 ├────────────────────┼────────────────────┼────────────────────┤
 | 0x0000000000000921 | 0x000000000000001e | 0x0000000000430600 |
 ├────────────────────┼────────────────────┼────────────────────┤
 | 0x00000000000007d3 | 0x000000000000002b | 0x000000000042e3f4 |
 ├────────────────────┼────────────────────┼────────────────────┤
 | 0x0000000000000bd6 | 0x0000000000000037 | 0x0000000000430614 |
 ├────────────────────┼────────────────────┼────────────────────┤
 | 0x0000000000000db9 | 0x000000000000000b | 0x0000000000430614 |
 ├────────────────────┼────────────────────┼────────────────────┤
 | 0x0000000000001923 | 0x0000000000000005 | 0x00000000004307a8 |
 ├────────────────────┼────────────────────┼────────────────────┤
 | 0x0000000000001aa4 | 0x000000000000002d | 0xffff00000810f694 |
 ├────────────────────┼────────────────────┼────────────────────┤
 | 0x0000000000001ac8 | 0x0000000000000001 | 0xffff000008088e78 |
 ├────────────────────┼────────────────────┼────────────────────┤
 | 0x0000000000001ad3 | 0x000000000000000a | 0xffff0000080c2f44 |
 ├────────────────────┼────────────────────┼────────────────────┤
 | 0x0000000000001ae5 | 0x0000000000000000 | 0xffff0000080ea0a0 |
 ├────────────────────┼────────────────────┼────────────────────┤
 | 0x0000000000000db8 | 0x0000000000000021 | 0x00000000004305fc |
 ├────────────────────┼────────────────────┼────────────────────┤
 | 0x000000000000072d | 0x000000000000000b | 0x00000000004306f8 |
 ├────────────────────┼────────────────────┼────────────────────┤
 | 0x000000000000077e | 0x000000000000001b | 0x00000000004306f8 |
 ├────────────────────┼────────────────────┼────────────────────┤
 | 0x0000000000001a9a | 0x000000000000000e | 0xffff0000080815d0 |
 ├────────────────────┼────────────────────┼────────────────────┤
 | 0x0000000000001adb | 0x000000000000003e | 0xffff00000812a158 |
 ├────────────────────┼────────────────────┼────────────────────┤
 | 0x0000000000000e65 | 0x0000000000000018 | 0x00000000004305fc |
 ├────────────────────┼────────────────────┼────────────────────┤
 | 0x0000000000000d21 | 0x000000000000003f | 0x0000000000430624 |
 └────────────────────┴────────────────────┴────────────────────┘
Filter table end
Accumulation table begin
 ┌────────────────────┬────────────────────┬────────────────────┬────────────────────┬──────────────────────────────────────────────────────────────────────────────────────────────────────────────────────────────────┬─────────────────────────────────────────────────────────────────────────────────────────────────────────────────────────────────────────────────────────────────────────────────────────┐
 | RegionNum          | Trigger            | Second             | PC                 | Pattern                                                                                                                          | Order                                                                                                                                                                                   |
 ├────────────────────┼────────────────────┼────────────────────┼────────────────────┼──────────────────────────────────────────────────────────────────────────────────────────────────────────────────────────────────┼─────────────────────────────────────────────────────────────────────────────────────────────────────────────────────────────────────────────────────────────────────────────────────────┤
 | 0x0000000000001c23 | 0x0000000000000000 | 0x0000000000000001 | 0x00000000004307a8 | 1 1 0 1 0 1 1 1 0 0 0 1 1 1 1 1 0 1 0 1 1 0 0 1 1 0 1 1 1 1 0 1 1 1 1 1 1 1 1 1 1 1 0 1 1 1 1 1 0 0 0 0 0 1 1 1 0 1 0 0 0 0 1 1  | 1 2 0 3 0 4 5 6 0 0 0 7 8 9 10 11 0 12 0 13 14 0 0 15 16 0 17 18 19 20 0 21 22 23 24 25 26 27 28 29 30 31 0 32 33 34 35 36 0 0 0 0 0 37 38 39 0 40 0 0 0 0 41 42                        |
 ├────────────────────┼────────────────────┼────────────────────┼────────────────────┼──────────────────────────────────────────────────────────────────────────────────────────────────────────────────────────────────┼─────────────────────────────────────────────────────────────────────────────────────────────────────────────────────────────────────────────────────────────────────────────────────────┤
 | 0x0000000000001c31 | 0x0000000000000007 | 0x000000000000000c | 0x00000000004307a8 | 0 0 0 0 0 0 0 1 0 0 0 0 1 1 1 0 0 1 1 1 1 1 1 0 0 1 1 1 1 1 1 0 0 0 1 0 1 1 0 0 0 0 1 0 1 0 0 1 0 0 0 0 0 0 1 1 1 1 1 1 1 0 0 0  | 0 0 0 0 0 0 0 1 0 0 0 0 2 3 4 0 0 5 6 7 8 9 10 0 0 11 12 13 14 15 16 0 0 0 17 0 18 19 0 0 0 0 20 0 21 0 0 22 0 0 0 0 0 0 23 24 25 26 27 28 29 0 0 0                                     |
 ├────────────────────┼────────────────────┼────────────────────┼────────────────────┼──────────────────────────────────────────────────────────────────────────────────────────────────────────────────────────────────┼─────────────────────────────────────────────────────────────────────────────────────────────────────────────────────────────────────────────────────────────────────────────────────────┤
 | 0x0000000000001c1c | 0x0000000000000000 | 0x0000000000000001 | 0x000000000043079c | 1 1 1 1 1 1 1 1 0 1 1 0 0 0 0 0 0 1 0 0 1 1 1 1 1 1 1 1 1 0 0 0 0 0 0 0 0 0 0 0 0 0 0 0 0 0 0 0 1 1 1 1 1 1 1 1 0 0 1 1 1 1 1 1  | 1 2 3 4 5 6 7 8 0 9 10 0 0 0 0 0 0 11 0 0 12 13 14 15 16 17 18 19 20 0 0 0 0 0 0 0 0 0 0 0 0 0 0 0 0 0 0 0 21 22 23 24 25 26 27 28 0 0 29 30 31 32 33 34                                |
 ├────────────────────┼────────────────────┼────────────────────┼────────────────────┼──────────────────────────────────────────────────────────────────────────────────────────────────────────────────────────────────┼─────────────────────────────────────────────────────────────────────────────────────────────────────────────────────────────────────────────────────────────────────────────────────────┤
 | 0x0000000000001c07 | 0x0000000000000000 | 0x0000000000000001 | 0x000000000043079c | 1 1 1 0 0 0 0 0 0 0 0 0 0 1 1 1 1 0 0 0 0 0 0 0 0 1 0 0 0 0 0 0 0 0 0 0 0 0 1 1 0 0 0 0 0 0 0 1 1 1 1 1 1 1 1 1 1 1 1 0 0 0 0 0  | 1 2 3 0 0 0 0 0 0 0 0 0 0 4 5 6 7 0 0 0 0 0 0 0 0 8 0 0 0 0 0 0 0 0 0 0 0 0 9 10 0 0 0 0 0 0 0 11 12 13 14 15 16 17 18 19 20 21 22 0 0 0 0 0                                            |
 ├────────────────────┼────────────────────┼────────────────────┼────────────────────┼──────────────────────────────────────────────────────────────────────────────────────────────────────────────────────────────────┼─────────────────────────────────────────────────────────────────────────────────────────────────────────────────────────────────────────────────────────────────────────────────────────┤
 | 0x0000000000001c15 | 0x0000000000000000 | 0x0000000000000001 | 0x000000000043078c | 1 1 1 1 1 1 1 1 1 1 1 1 1 1 1 1 1 1 1 1 1 1 1 1 1 1 1 1 1 1 1 1 1 1 1 1 1 1 1 1 1 1 1 1 1 1 1 1 1 1 1 1 1 1 1 1 1 1 1 1 1 1 1 1  | 1 2 3 4 5 6 7 8 9 10 11 12 13 14 15 16 17 18 19 20 21 22 23 24 25 26 27 28 29 30 31 32 33 34 35 36 37 38 39 40 41 42 43 44 45 46 47 48 49 50 51 52 53 54 55 56 57 58 59 60 61 62 63 64  |
 ├────────────────────┼────────────────────┼────────────────────┼────────────────────┼──────────────────────────────────────────────────────────────────────────────────────────────────────────────────────────────────┼─────────────────────────────────────────────────────────────────────────────────────────────────────────────────────────────────────────────────────────────────────────────────────────┤
 | 0x0000000000001c38 | 0x0000000000000000 | 0x0000000000000009 | 0x00000000004307a8 | 1 0 0 0 0 0 0 0 0 1 1 1 0 0 1 1 1 1 1 0 0 0 0 1 0 0 0 0 0 0 0 0 0 0 0 0 0 0 0 0 0 0 0 0 0 0 0 0 0 0 0 0 0 0 0 0 0 0 0 0 0 0 0 0  | 1 0 0 0 0 0 0 0 0 2 3 4 0 0 5 6 7 8 9 0 0 0 0 10 0 0 0 0 0 0 0 0 0 0 0 0 0 0 0 0 0 0 0 0 0 0 0 0 0 0 0 0 0 0 0 0 0 0 0 0 0 0 0 0                                                        |
 ├────────────────────┼────────────────────┼────────────────────┼────────────────────┼──────────────────────────────────────────────────────────────────────────────────────────────────────────────────────────────────┼─────────────────────────────────────────────────────────────────────────────────────────────────────────────────────────────────────────────────────────────────────────────────────────┤
 | 0x0000000000001c2a | 0x0000000000000000 | 0x0000000000000001 | 0x000000000043078c | 1 1 1 1 1 1 1 1 1 1 1 1 1 1 1 1 1 1 1 1 1 1 1 1 1 1 1 1 1 1 1 1 1 1 1 1 1 1 1 1 1 1 1 1 1 1 1 1 1 1 1 1 1 1 1 1 1 1 1 1 1 1 1 1  | 1 2 3 4 5 6 7 8 9 10 11 12 13 14 15 16 17 18 19 20 21 22 23 24 25 26 27 28 29 30 31 32 33 34 35 36 37 38 39 40 41 42 43 44 45 46 47 48 49 50 51 52 53 54 55 56 57 58 59 60 61 62 63 64  |
 ├────────────────────┼────────────────────┼────────────────────┼────────────────────┼──────────────────────────────────────────────────────────────────────────────────────────────────────────────────────────────────┼─────────────────────────────────────────────────────────────────────────────────────────────────────────────────────────────────────────────────────────────────────────────────────────┤
 | 0x0000000000001c0e | 0x0000000000000000 | 0x0000000000000001 | 0x00000000004307a8 | 1 1 1 1 0 0 0 0 0 0 1 0 0 0 0 0 0 0 0 1 0 1 0 0 0 0 0 0 0 0 0 0 1 1 1 1 1 1 1 1 1 1 0 0 1 1 1 1 1 1 1 1 1 0 0 0 0 0 0 1 0 0 0 0  | 1 2 3 4 0 0 0 0 0 0 5 0 0 0 0 0 0 0 0 6 0 7 0 0 0 0 0 0 0 0 0 0 8 9 10 11 12 13 14 15 16 17 0 0 18 19 20 21 22 23 24 25 26 0 0 0 0 0 0 27 0 0 0 0                                       |
 ├────────────────────┼────────────────────┼────────────────────┼────────────────────┼──────────────────────────────────────────────────────────────────────────────────────────────────────────────────────────────────┼─────────────────────────────────────────────────────────────────────────────────────────────────────────────────────────────────────────────────────────────────────────────────────────┤
 | 0x0000000000001c0f | 0x0000000000000000 | 0x0000000000000001 | 0x000000000043078c | 1 1 1 1 1 1 1 1 1 1 1 1 1 1 1 1 1 1 1 1 1 1 1 1 1 1 1 1 1 1 1 1 1 1 1 1 1 1 1 1 1 1 1 1 1 1 1 1 1 1 1 1 1 1 1 1 1 1 1 1 1 1 1 1  | 1 2 3 4 5 6 7 8 9 10 11 12 13 14 15 16 17 18 19 20 21 22 23 24 25 26 27 28 29 30 31 32 33 34 35 36 37 38 39 40 41 42 43 44 45 46 47 48 49 50 51 52 53 54 55 56 57 58 59 60 61 62 63 64  |
 ├────────────────────┼────────────────────┼────────────────────┼────────────────────┼──────────────────────────────────────────────────────────────────────────────────────────────────────────────────────────────────┼─────────────────────────────────────────────────────────────────────────────────────────────────────────────────────────────────────────────────────────────────────────────────────────┤
 | 0x0000000000001c2b | 0x0000000000000000 | 0x0000000000000001 | 0x000000000043079c | 1 1 1 1 1 1 0 1 1 1 0 1 0 0 1 1 1 0 1 0 1 1 1 1 1 0 1 0 1 0 1 0 1 1 1 0 1 0 0 1 0 0 1 1 1 0 0 1 1 1 1 0 1 0 1 1 1 0 1 1 1 1 0 1  | 1 2 3 4 5 6 0 7 8 9 0 10 0 0 11 12 13 0 14 0 15 16 17 18 19 0 20 0 21 0 22 0 23 24 25 0 26 0 0 27 0 0 28 29 30 0 0 31 32 33 34 0 35 0 36 37 38 0 39 40 41 42 0 43                       |
 ├────────────────────┼────────────────────┼────────────────────┼────────────────────┼──────────────────────────────────────────────────────────────────────────────────────────────────────────────────────────────────┼─────────────────────────────────────────────────────────────────────────────────────────────────────────────────────────────────────────────────────────────────────────────────────────┤
 | 0x0000000000001c06 | 0x0000000000000000 | 0x0000000000000001 | 0x000000000043078c | 1 1 1 1 1 1 1 1 1 1 1 1 1 1 1 1 1 1 1 1 1 1 1 1 1 1 1 1 1 1 1 1 1 1 1 1 1 1 1 1 1 1 1 1 1 1 1 1 1 1 1 1 1 1 1 1 1 1 1 1 1 1 1 1  | 1 2 3 4 5 6 7 8 9 10 11 12 13 14 15 16 17 18 19 20 21 22 23 24 25 26 27 28 29 30 31 32 33 34 35 36 37 38 39 40 41 42 43 44 45 46 47 48 49 50 51 52 53 54 55 56 57 58 59 60 61 62 63 64  |
 ├────────────────────┼────────────────────┼────────────────────┼────────────────────┼──────────────────────────────────────────────────────────────────────────────────────────────────────────────────────────────────┼─────────────────────────────────────────────────────────────────────────────────────────────────────────────────────────────────────────────────────────────────────────────────────────┤
 | 0x0000000000001c22 | 0x0000000000000000 | 0x0000000000000001 | 0x000000000043079c | 1 1 0 1 0 1 1 1 0 0 0 1 1 1 1 1 0 1 0 1 1 0 0 1 1 0 1 1 1 1 0 1 1 1 1 1 1 1 1 1 1 1 0 1 1 1 1 1 0 0 0 0 0 1 1 1 0 1 0 0 0 0 1 1  | 1 2 0 3 0 4 5 6 0 0 0 7 8 9 10 11 0 12 0 13 14 0 0 15 16 0 17 18 19 20 0 21 22 23 24 25 26 27 28 29 30 31 0 32 33 34 35 36 0 0 0 0 0 37 38 39 0 40 0 0 0 0 41 42                        |
 ├────────────────────┼────────────────────┼────────────────────┼────────────────────┼──────────────────────────────────────────────────────────────────────────────────────────────────────────────────────────────────┼─────────────────────────────────────────────────────────────────────────────────────────────────────────────────────────────────────────────────────────────────────────────────────────┤
 | 0x0000000000001c14 | 0x0000000000000000 | 0x0000000000000001 | 0x00000000004307a8 | 1 1 0 1 1 0 0 1 0 1 1 1 0 1 1 1 1 0 0 0 1 1 0 1 1 0 1 0 0 0 0 0 1 1 1 1 1 1 1 0 0 0 1 0 0 1 0 1 0 0 0 0 0 0 1 1 0 0 0 0 1 0 1 1  | 1 2 0 3 4 0 0 5 0 6 7 8 0 9 10 11 12 0 0 0 13 14 0 15 16 0 17 0 0 0 0 0 18 19 20 21 22 23 24 0 0 0 25 0 0 26 0 27 0 0 0 0 0 0 28 29 0 0 0 0 30 0 31 32                                  |
 ├────────────────────┼────────────────────┼────────────────────┼────────────────────┼──────────────────────────────────────────────────────────────────────────────────────────────────────────────────────────────────┼─────────────────────────────────────────────────────────────────────────────────────────────────────────────────────────────────────────────────────────────────────────────────────────┤
 | 0x0000000000001c1d | 0x0000000000000000 | 0x0000000000000001 | 0x00000000004307a8 | 1 1 1 1 1 1 1 1 0 1 1 0 0 0 0 0 0 1 0 0 1 1 1 1 1 1 1 1 1 0 0 0 0 0 0 0 0 0 0 0 0 0 0 0 0 0 0 0 1 1 1 1 1 1 1 1 0 0 1 1 1 1 1 1  | 1 2 3 4 5 6 7 8 0 9 10 0 0 0 0 0 0 11 0 0 12 13 14 15 16 17 18 19 20 0 0 0 0 0 0 0 0 0 0 0 0 0 0 0 0 0 0 0 21 22 23 24 25 26 27 28 0 0 29 30 31 32 33 34                                |
 ├────────────────────┼────────────────────┼────────────────────┼────────────────────┼──────────────────────────────────────────────────────────────────────────────────────────────────────────────────────────────────┼─────────────────────────────────────────────────────────────────────────────────────────────────────────────────────────────────────────────────────────────────────────────────────────┤
 | 0x0000000000001bfd | 0x0000000000000000 | 0x0000000000000001 | 0x000000000043078c | 1 1 1 1 1 1 1 1 1 1 1 1 1 1 1 1 1 1 1 1 1 1 1 1 1 1 1 1 1 1 1 1 1 1 1 1 1 1 1 1 1 1 1 1 1 1 1 1 1 1 1 1 1 1 1 1 1 1 1 1 1 1 1 1  | 1 2 3 4 5 6 7 8 9 10 11 12 13 14 15 16 17 18 19 20 21 22 23 24 25 26 27 28 29 30 31 32 33 34 35 36 37 38 39 40 41 42 43 44 45 46 47 48 49 50 51 52 53 54 55 56 57 58 59 60 61 62 63 64  |
 ├────────────────────┼────────────────────┼────────────────────┼────────────────────┼──────────────────────────────────────────────────────────────────────────────────────────────────────────────────────────────────┼─────────────────────────────────────────────────────────────────────────────────────────────────────────────────────────────────────────────────────────────────────────────────────────┤
 | 0x0000000000001c30 | 0x0000000000000000 | 0x0000000000000001 | 0x000000000043078c | 1 1 1 1 1 1 1 1 1 1 1 1 1 1 1 1 1 1 1 1 1 1 1 1 1 1 1 1 1 1 1 1 1 1 1 1 1 1 1 1 1 1 1 1 1 1 1 1 1 1 1 1 1 1 1 1 1 1 1 1 1 1 1 1  | 1 2 3 4 5 6 7 8 9 10 11 12 13 14 15 16 17 18 19 20 21 22 23 24 25 26 27 28 29 30 31 32 33 34 35 36 37 38 39 40 41 42 43 44 45 46 47 48 49 50 51 52 53 54 55 56 57 58 59 60 61 62 63 64  |
 ├────────────────────┼────────────────────┼────────────────────┼────────────────────┼──────────────────────────────────────────────────────────────────────────────────────────────────────────────────────────────────┼─────────────────────────────────────────────────────────────────────────────────────────────────────────────────────────────────────────────────────────────────────────────────────────┤
 | 0x0000000000001c17 | 0x0000000000000000 | 0x0000000000000001 | 0x00000000004307a8 | 1 1 1 1 1 1 1 1 1 1 1 1 1 1 1 1 1 0 0 0 0 0 0 0 0 0 0 0 0 0 0 0 1 1 1 1 1 1 1 1 1 1 0 1 0 0 0 0 0 0 1 0 0 1 1 1 1 1 1 1 1 1 1 1  | 1 2 3 4 5 6 7 8 9 10 11 12 13 14 15 16 17 0 0 0 0 0 0 0 0 0 0 0 0 0 0 0 18 19 20 21 22 23 24 25 26 27 0 28 0 0 0 0 0 0 29 0 0 30 31 32 33 34 35 36 37 38 39 40                          |
 ├────────────────────┼────────────────────┼────────────────────┼────────────────────┼──────────────────────────────────────────────────────────────────────────────────────────────────────────────────────────────────┼─────────────────────────────────────────────────────────────────────────────────────────────────────────────────────────────────────────────────────────────────────────────────────────┤
 | 0x0000000000001c1e | 0x0000000000000000 | 0x0000000000000001 | 0x000000000043078c | 1 1 1 1 1 1 1 1 1 1 1 1 1 1 1 1 1 1 1 1 1 1 1 1 1 1 1 1 1 1 1 1 1 1 1 1 1 1 1 1 1 1 1 1 1 1 1 1 1 1 1 1 1 1 1 1 1 1 1 1 1 1 1 1  | 1 2 3 4 5 6 7 8 9 10 11 12 13 14 15 16 17 18 19 20 21 22 23 24 25 26 27 28 29 30 31 32 33 34 35 36 37 38 39 40 41 42 43 44 45 46 47 48 49 50 51 52 53 54 55 56 57 58 59 60 61 62 63 64  |
 ├────────────────────┼────────────────────┼────────────────────┼────────────────────┼──────────────────────────────────────────────────────────────────────────────────────────────────────────────────────────────────┼─────────────────────────────────────────────────────────────────────────────────────────────────────────────────────────────────────────────────────────────────────────────────────────┤
 | 0x0000000000001c0c | 0x0000000000000000 | 0x0000000000000001 | 0x000000000043078c | 1 1 1 1 1 1 1 1 1 1 1 1 1 1 1 1 1 1 1 1 1 1 1 1 1 1 1 1 1 1 1 1 1 1 1 1 1 1 1 1 1 1 1 1 1 1 1 1 1 1 1 1 1 1 1 1 1 1 1 1 1 1 1 1  | 1 2 3 4 5 6 7 8 9 10 11 12 13 14 15 16 17 18 19 20 21 22 23 24 25 26 27 28 29 30 31 32 33 34 35 36 37 38 39 40 41 42 43 44 45 46 47 48 49 50 51 52 53 54 55 56 57 58 59 60 61 62 63 64  |
 ├────────────────────┼────────────────────┼────────────────────┼────────────────────┼──────────────────────────────────────────────────────────────────────────────────────────────────────────────────────────────────┼─────────────────────────────────────────────────────────────────────────────────────────────────────────────────────────────────────────────────────────────────────────────────────────┤
 | 0x0000000000001c33 | 0x0000000000000000 | 0x0000000000000001 | 0x000000000043078c | 1 1 1 1 1 1 1 1 1 1 1 1 1 1 1 1 1 1 1 1 1 1 1 1 1 1 1 1 1 1 1 1 1 1 1 1 1 1 1 1 1 1 1 1 1 1 1 1 1 1 1 1 1 1 1 1 1 1 1 1 1 1 1 1  | 1 2 3 4 5 6 7 8 9 10 11 12 13 14 15 16 17 18 19 20 21 22 23 24 25 26 27 28 29 30 31 32 33 34 35 36 37 38 39 40 41 42 43 44 45 46 47 48 49 50 51 52 53 54 55 56 57 58 59 60 61 62 63 64  |
 ├────────────────────┼────────────────────┼────────────────────┼────────────────────┼──────────────────────────────────────────────────────────────────────────────────────────────────────────────────────────────────┼─────────────────────────────────────────────────────────────────────────────────────────────────────────────────────────────────────────────────────────────────────────────────────────┤
 | 0x0000000000001bfe | 0x0000000000000000 | 0x0000000000000001 | 0x000000000043079c | 1 1 1 1 1 1 1 1 1 1 0 1 0 1 0 0 0 0 0 0 1 1 1 1 0 0 1 1 1 1 1 1 1 1 1 0 0 0 0 0 0 0 0 0 0 0 0 0 0 0 0 0 0 0 0 0 0 0 0 1 1 1 1 1  | 1 2 3 4 5 6 7 8 9 10 0 11 0 12 0 0 0 0 0 0 13 14 15 16 0 0 17 18 19 20 21 22 23 24 25 0 0 0 0 0 0 0 0 0 0 0 0 0 0 0 0 0 0 0 0 0 0 0 0 26 27 28 29 30                                    |
 ├────────────────────┼────────────────────┼────────────────────┼────────────────────┼──────────────────────────────────────────────────────────────────────────────────────────────────────────────────────────────────┼─────────────────────────────────────────────────────────────────────────────────────────────────────────────────────────────────────────────────────────────────────────────────────────┤
 | 0x0000000000001c28 | 0x0000000000000003 | 0x0000000000000004 | 0x00000000004307a8 | 0 0 1 1 1 1 1 1 1 1 1 1 1 1 1 0 1 1 1 1 0 1 1 1 1 0 0 1 1 0 0 1 1 1 1 1 1 1 1 1 0 1 1 1 1 1 1 1 1 1 1 1 1 1 1 1 1 1 0 1 1 1 1 1  | 0 0 4 1 2 3 5 6 7 8 9 10 11 12 13 0 14 15 16 17 0 18 19 20 21 0 0 22 23 0 0 24 25 26 27 28 29 30 31 32 0 33 34 35 36 37 38 39 40 41 42 43 44 45 46 47 48 49 0 50 51 52 53 54            |
 ├────────────────────┼────────────────────┼────────────────────┼────────────────────┼──────────────────────────────────────────────────────────────────────────────────────────────────────────────────────────────────┼─────────────────────────────────────────────────────────────────────────────────────────────────────────────────────────────────────────────────────────────────────────────────────────┤
 | 0x0000000000001c05 | 0x0000000000000001 | 0x000000000000000a | 0x000000000043079c | 0 1 0 0 0 0 0 0 0 0 1 1 0 1 1 0 0 0 0 0 0 1 1 1 1 1 1 1 1 1 0 0 0 0 0 0 1 0 0 0 0 0 0 0 0 1 0 1 0 0 0 0 0 0 0 0 0 1 1 1 1 1 1 1  | 0 1 0 0 0 0 0 0 0 0 2 3 0 4 5 0 0 0 0 0 0 6 7 8 9 10 11 12 13 14 0 0 0 0 0 0 15 0 0 0 0 0 0 0 0 16 0 17 0 0 0 0 0 0 0 0 0 18 19 20 21 22 23 24                                          |
 ├────────────────────┼────────────────────┼────────────────────┼────────────────────┼──────────────────────────────────────────────────────────────────────────────────────────────────────────────────────────────────┼─────────────────────────────────────────────────────────────────────────────────────────────────────────────────────────────────────────────────────────────────────────────────────────┤
 | 0x0000000000001c21 | 0x0000000000000000 | 0x0000000000000001 | 0x000000000043078c | 1 1 1 1 1 1 1 1 1 1 1 1 1 1 1 1 1 1 1 1 1 1 1 1 1 1 1 1 1 1 1 1 1 1 1 1 1 1 1 1 1 1 1 1 1 1 1 1 1 1 1 1 1 1 1 1 1 1 1 1 1 1 1 1  | 1 2 3 4 5 6 7 8 9 10 11 12 13 14 15 16 17 18 19 20 21 22 23 24 25 26 27 28 29 30 31 32 33 34 35 36 37 38 39 40 41 42 43 44 45 46 47 48 49 50 51 52 53 54 55 56 57 58 59 60 61 62 63 64  |
 ├────────────────────┼────────────────────┼────────────────────┼────────────────────┼──────────────────────────────────────────────────────────────────────────────────────────────────────────────────────────────────┼─────────────────────────────────────────────────────────────────────────────────────────────────────────────────────────────────────────────────────────────────────────────────────────┤
 | 0x0000000000001c20 | 0x0000000000000000 | 0x0000000000000001 | 0x00000000004307a8 | 1 1 0 0 0 0 1 1 0 0 0 0 0 0 0 1 1 1 1 1 1 1 1 1 1 0 0 1 1 1 1 1 1 1 1 1 1 1 0 1 0 1 1 0 0 1 1 0 1 1 1 1 0 1 1 0 1 0 1 0 1 0 0 1  | 1 2 0 0 0 0 3 4 0 0 0 0 0 0 0 5 6 7 8 9 10 11 12 13 14 0 0 15 16 17 18 19 20 21 22 23 24 25 0 26 0 27 28 0 0 29 30 0 31 32 33 34 0 35 36 0 37 0 38 0 39 0 0 40                          |
 ├────────────────────┼────────────────────┼────────────────────┼────────────────────┼──────────────────────────────────────────────────────────────────────────────────────────────────────────────────────────────────┼─────────────────────────────────────────────────────────────────────────────────────────────────────────────────────────────────────────────────────────────────────────────────────────┤
 | 0x0000000000001c16 | 0x0000000000000000 | 0x0000000000000001 | 0x000000000043079c | 1 1 1 1 1 1 1 1 1 1 1 1 1 1 1 1 1 0 0 0 0 0 0 0 0 0 0 0 0 0 0 0 1 1 1 1 1 1 1 1 1 1 0 1 0 0 0 0 0 0 1 0 0 1 1 1 1 1 1 1 1 1 1 1  | 1 2 3 4 5 6 7 8 9 10 11 12 13 14 15 16 17 0 0 0 0 0 0 0 0 0 0 0 0 0 0 0 18 19 20 21 22 23 24 25 26 27 0 28 0 0 0 0 0 0 29 0 0 30 31 32 33 34 35 36 37 38 39 40                          |
 ├────────────────────┼────────────────────┼────────────────────┼────────────────────┼──────────────────────────────────────────────────────────────────────────────────────────────────────────────────────────────────┼─────────────────────────────────────────────────────────────────────────────────────────────────────────────────────────────────────────────────────────────────────────────────────────┤
 | 0x0000000000001c32 | 0x0000000000000007 | 0x000000000000000c | 0x000000000043079c | 0 0 0 0 0 0 0 1 0 0 0 0 1 1 1 0 0 1 1 1 1 1 1 0 0 1 1 1 1 1 1 0 0 0 1 0 1 1 0 0 0 0 1 0 1 0 0 1 0 0 0 0 0 0 1 1 1 1 1 1 1 0 0 0  | 0 0 0 0 0 0 0 1 0 0 0 0 2 3 4 0 0 5 6 7 8 9 10 0 0 11 12 13 14 15 16 0 0 0 17 0 18 19 0 0 0 0 20 0 21 0 0 22 0 0 0 0 0 0 23 24 25 26 27 28 29 0 0 0                                     |
 ├────────────────────┼────────────────────┼────────────────────┼────────────────────┼──────────────────────────────────────────────────────────────────────────────────────────────────────────────────────────────────┼─────────────────────────────────────────────────────────────────────────────────────────────────────────────────────────────────────────────────────────────────────────────────────────┤
 | 0x0000000000001c1f | 0x0000000000000000 | 0x0000000000000001 | 0x000000000043079c | 1 1 0 0 0 0 1 1 0 0 0 0 0 0 0 1 1 1 1 1 1 1 1 1 1 0 0 1 1 1 1 1 1 1 1 1 1 1 0 1 0 1 1 0 0 1 1 0 1 1 1 1 0 1 1 0 1 0 1 0 1 0 0 1  | 1 2 0 0 0 0 3 4 0 0 0 0 0 0 0 5 6 7 8 9 10 11 12 13 14 0 0 15 16 17 18 19 20 21 22 23 24 25 0 26 0 27 28 0 0 29 30 0 31 32 33 34 0 35 36 0 37 0 38 0 39 0 0 40                          |
 ├────────────────────┼────────────────────┼────────────────────┼────────────────────┼──────────────────────────────────────────────────────────────────────────────────────────────────────────────────────────────────┼─────────────────────────────────────────────────────────────────────────────────────────────────────────────────────────────────────────────────────────────────────────────────────────┤
 | 0x0000000000001bff | 0x0000000000000000 | 0x0000000000000001 | 0x00000000004307a8 | 1 1 1 1 1 1 1 1 1 1 0 1 0 1 0 0 0 0 0 0 1 1 1 1 0 0 1 1 1 1 1 1 1 1 1 0 0 0 0 0 0 0 0 0 0 0 0 0 0 0 0 0 0 0 0 0 0 0 0 1 1 1 1 1  | 1 2 3 4 5 6 7 8 9 10 0 11 0 12 0 0 0 0 0 0 13 14 15 16 0 0 17 18 19 20 21 22 23 24 25 0 0 0 0 0 0 0 0 0 0 0 0 0 0 0 0 0 0 0 0 0 0 0 0 26 27 28 29 30                                    |
 ├────────────────────┼────────────────────┼────────────────────┼────────────────────┼──────────────────────────────────────────────────────────────────────────────────────────────────────────────────────────────────┼─────────────────────────────────────────────────────────────────────────────────────────────────────────────────────────────────────────────────────────────────────────────────────────┤
 | 0x0000000000001c04 | 0x0000000000000001 | 0x000000000000000a | 0x00000000004307a8 | 0 1 0 0 0 0 0 0 0 0 1 1 0 1 1 0 0 0 0 0 0 1 1 1 1 1 1 1 1 1 0 0 0 0 0 0 1 0 0 0 0 0 0 0 0 1 0 1 0 0 0 0 0 0 0 0 0 1 1 1 1 1 1 1  | 0 1 0 0 0 0 0 0 0 0 2 3 0 4 5 0 0 0 0 0 0 6 7 8 9 10 11 12 13 14 0 0 0 0 0 0 15 0 0 0 0 0 0 0 0 16 0 17 0 0 0 0 0 0 0 0 0 18 19 20 21 22 23 24                                          |
 ├────────────────────┼────────────────────┼────────────────────┼────────────────────┼──────────────────────────────────────────────────────────────────────────────────────────────────────────────────────────────────┼─────────────────────────────────────────────────────────────────────────────────────────────────────────────────────────────────────────────────────────────────────────────────────────┤
 | 0x0000000000001c0d | 0x0000000000000000 | 0x0000000000000001 | 0x000000000043079c | 1 1 1 1 0 0 0 0 0 0 1 0 0 0 0 0 0 0 0 1 0 1 0 0 0 0 0 0 0 0 0 0 1 1 1 1 1 1 1 1 1 1 0 0 1 1 1 1 1 1 1 1 1 0 0 0 0 0 0 1 0 0 0 0  | 1 2 3 4 0 0 0 0 0 0 5 0 0 0 0 0 0 0 0 6 0 7 0 0 0 0 0 0 0 0 0 0 8 9 10 11 12 13 14 15 16 17 0 0 18 19 20 21 22 23 24 25 26 0 0 0 0 0 0 27 0 0 0 0                                       |
 ├────────────────────┼────────────────────┼────────────────────┼────────────────────┼──────────────────────────────────────────────────────────────────────────────────────────────────────────────────────────────────┼─────────────────────────────────────────────────────────────────────────────────────────────────────────────────────────────────────────────────────────────────────────────────────────┤
 | 0x0000000000001c29 | 0x0000000000000002 | 0x0000000000000003 | 0x000000000043079c | 0 0 1 1 1 1 1 1 1 1 1 1 1 1 1 0 1 1 1 1 0 1 1 1 1 0 0 1 1 0 0 1 1 1 1 1 1 1 1 1 0 1 1 1 1 1 1 1 1 1 1 1 1 1 1 1 1 1 0 1 1 1 1 1  | 0 0 1 2 3 4 5 6 7 8 9 10 11 12 13 0 14 15 16 17 0 18 19 20 21 0 0 22 23 0 0 24 25 26 27 28 29 30 31 32 0 33 34 35 36 37 38 39 40 41 42 43 44 45 46 47 48 49 0 50 51 52 53 54            |
 ├────────────────────┼────────────────────┼────────────────────┼────────────────────┼──────────────────────────────────────────────────────────────────────────────────────────────────────────────────────────────────┼─────────────────────────────────────────────────────────────────────────────────────────────────────────────────────────────────────────────────────────────────────────────────────────┤
 | 0x0000000000001bf8 | 0x0000000000000000 | 0x0000000000000005 | 0x00000000004307a8 | 1 0 0 0 0 1 1 1 0 0 0 0 1 1 1 0 0 0 0 0 0 0 0 0 1 1 1 1 0 0 1 1 1 1 1 1 0 0 0 0 0 0 0 1 1 0 0 0 0 0 1 1 1 0 1 1 1 1 1 1 1 1 1 1  | 1 0 0 0 0 2 3 4 0 0 0 0 5 6 7 0 0 0 0 0 0 0 0 0 8 9 10 11 0 0 12 13 14 15 16 17 0 0 0 0 0 0 0 18 19 0 0 0 0 0 20 21 22 0 23 24 25 26 27 28 29 30 31 32                                  |
 ├────────────────────┼────────────────────┼────────────────────┼────────────────────┼──────────────────────────────────────────────────────────────────────────────────────────────────────────────────────────────────┼─────────────────────────────────────────────────────────────────────────────────────────────────────────────────────────────────────────────────────────────────────────────────────────┤
 | 0x0000000000001c2e | 0x0000000000000000 | 0x0000000000000003 | 0x000000000043079c | 1 0 0 1 1 1 0 0 1 0 1 0 1 1 0 1 1 0 0 1 1 0 1 1 1 1 0 0 1 1 1 1 0 1 1 1 1 1 0 1 1 1 1 1 0 0 0 0 0 0 0 1 1 0 0 0 0 0 0 0 0 1 1 0  | 1 0 0 2 3 4 0 0 5 0 6 0 7 8 0 9 10 0 0 11 12 0 13 14 15 16 0 0 17 18 19 20 0 21 22 23 24 25 0 26 27 28 29 30 0 0 0 0 0 0 0 31 32 0 0 0 0 0 0 0 0 33 34 0                                |
 ├────────────────────┼────────────────────┼────────────────────┼────────────────────┼──────────────────────────────────────────────────────────────────────────────────────────────────────────────────────────────────┼─────────────────────────────────────────────────────────────────────────────────────────────────────────────────────────────────────────────────────────────────────────────────────────┤
 | 0x0000000000001c18 | 0x0000000000000000 | 0x0000000000000001 | 0x000000000043078c | 1 1 1 1 1 1 1 1 1 1 1 1 1 1 1 1 1 1 1 1 1 1 1 1 1 1 1 1 1 1 1 1 1 1 1 1 1 1 1 1 1 1 1 1 1 1 1 1 1 1 1 1 1 1 1 1 1 1 1 1 1 1 1 1  | 1 2 3 4 5 6 7 8 9 10 11 12 13 14 15 16 17 18 19 20 21 22 23 24 25 26 27 28 29 30 31 32 33 34 35 36 37 38 39 40 41 42 43 44 45 46 47 48 49 50 51 52 53 54 55 56 57 58 59 60 61 62 63 64  |
 ├────────────────────┼────────────────────┼────────────────────┼────────────────────┼──────────────────────────────────────────────────────────────────────────────────────────────────────────────────────────────────┼─────────────────────────────────────────────────────────────────────────────────────────────────────────────────────────────────────────────────────────────────────────────────────────┤
 | 0x0000000000001c0a | 0x0000000000000001 | 0x000000000000000a | 0x000000000043079c | 0 1 0 0 0 0 0 0 0 0 1 1 1 0 1 1 1 1 1 1 1 1 1 0 0 0 0 0 0 1 0 0 0 0 0 0 0 0 1 1 1 0 0 0 0 0 0 0 0 1 0 0 0 0 0 0 1 1 1 1 1 1 1 1  | 0 1 0 0 0 0 0 0 0 0 2 3 4 0 5 6 7 8 9 10 11 12 13 0 0 0 0 0 0 14 0 0 0 0 0 0 0 0 15 16 17 0 0 0 0 0 0 0 0 18 0 0 0 0 0 0 19 20 21 22 23 24 25 26                                        |
 ├────────────────────┼────────────────────┼────────────────────┼────────────────────┼──────────────────────────────────────────────────────────────────────────────────────────────────────────────────────────────────┼─────────────────────────────────────────────────────────────────────────────────────────────────────────────────────────────────────────────────────────────────────────────────────────┤
 | 0x0000000000001c27 | 0x0000000000000000 | 0x0000000000000001 | 0x000000000043078c | 1 1 1 1 1 1 1 1 1 1 1 1 1 1 1 1 1 1 1 1 1 1 1 1 1 1 1 1 1 1 1 1 1 1 1 1 1 1 1 1 1 1 1 1 1 1 1 1 1 1 1 1 1 1 1 1 1 1 1 1 1 1 1 1  | 1 2 3 4 5 6 7 8 9 10 11 12 13 14 15 16 17 18 19 20 21 22 23 24 25 26 27 28 29 30 31 32 33 34 35 36 37 38 39 40 41 42 43 44 45 46 47 48 49 50 51 52 53 54 55 56 57 58 59 60 61 62 63 64  |
 ├────────────────────┼────────────────────┼────────────────────┼────────────────────┼──────────────────────────────────────────────────────────────────────────────────────────────────────────────────────────────────┼─────────────────────────────────────────────────────────────────────────────────────────────────────────────────────────────────────────────────────────────────────────────────────────┤
 | 0x0000000000001c03 | 0x0000000000000000 | 0x0000000000000001 | 0x000000000043078c | 1 1 1 1 1 1 1 1 1 1 1 1 1 1 1 1 1 1 1 1 1 1 1 1 1 1 1 1 1 1 1 1 1 1 1 1 1 1 1 1 1 1 1 1 1 1 1 1 1 1 1 1 1 1 1 1 1 1 1 1 1 1 1 1  | 1 2 3 4 5 6 7 8 9 10 11 12 13 14 15 16 17 18 19 20 21 22 23 24 25 26 27 28 29 30 31 32 33 34 35 36 37 38 39 40 41 42 43 44 45 46 47 48 49 50 51 52 53 54 55 56 57 58 59 60 61 62 63 64  |
 ├────────────────────┼────────────────────┼────────────────────┼────────────────────┼──────────────────────────────────────────────────────────────────────────────────────────────────────────────────────────────────┼─────────────────────────────────────────────────────────────────────────────────────────────────────────────────────────────────────────────────────────────────────────────────────────┤
 | 0x0000000000001c11 | 0x0000000000000004 | 0x0000000000000005 | 0x000000000043079c | 0 0 0 0 1 1 1 0 0 0 0 0 0 0 1 0 0 0 0 1 1 1 0 1 1 0 1 1 0 0 0 1 1 1 0 0 0 1 1 0 0 0 1 1 1 1 0 1 0 1 1 1 0 0 1 0 0 1 1 1 0 1 1 0  | 0 0 0 0 1 2 3 0 0 0 0 0 0 0 4 0 0 0 0 5 6 7 0 8 9 0 10 11 0 0 0 12 13 14 0 0 0 15 16 0 0 0 17 18 19 20 0 21 0 22 23 24 0 0 25 0 0 26 27 28 0 29 30 0                                    |
 ├────────────────────┼────────────────────┼────────────────────┼────────────────────┼──────────────────────────────────────────────────────────────────────────────────────────────────────────────────────────────────┼─────────────────────────────────────────────────────────────────────────────────────────────────────────────────────────────────────────────────────────────────────────────────────────┤
 | 0x0000000000001c35 | 0x0000000000000005 | 0x0000000000000015 | 0x000000000043079c | 0 0 0 0 0 1 0 0 0 0 0 0 0 0 0 0 0 0 0 0 0 1 1 0 0 0 0 0 0 0 0 1 0 0 0 0 0 0 0 0 0 0 0 1 0 0 0 0 1 1 0 0 0 0 0 0 0 0 1 0 0 0 0 1  | 0 0 0 0 0 1 0 0 0 0 0 0 0 0 0 0 0 0 0 0 0 2 3 0 0 0 0 0 0 0 0 4 0 0 0 0 0 0 0 0 0 0 0 5 0 0 0 0 6 7 0 0 0 0 0 0 0 0 8 0 0 0 0 9                                                         |
 ├────────────────────┼────────────────────┼────────────────────┼────────────────────┼──────────────────────────────────────────────────────────────────────────────────────────────────────────────────────────────────┼─────────────────────────────────────────────────────────────────────────────────────────────────────────────────────────────────────────────────────────────────────────────────────────┤
 | 0x0000000000001c34 | 0x0000000000000005 | 0x0000000000000015 | 0x00000000004307a8 | 0 0 0 0 0 1 0 0 0 0 0 0 0 0 0 0 0 0 0 0 0 1 1 0 0 0 0 0 0 0 0 1 0 0 0 0 0 0 0 0 0 0 0 1 0 0 0 0 1 1 0 0 0 0 0 0 0 0 1 0 0 0 0 1  | 0 0 0 0 0 1 0 0 0 0 0 0 0 0 0 0 0 0 0 0 0 2 3 0 0 0 0 0 0 0 0 4 0 0 0 0 0 0 0 0 0 0 0 5 0 0 0 0 6 7 0 0 0 0 0 0 0 0 8 0 0 0 0 9                                                         |
 ├────────────────────┼────────────────────┼────────────────────┼────────────────────┼──────────────────────────────────────────────────────────────────────────────────────────────────────────────────────────────────┼─────────────────────────────────────────────────────────────────────────────────────────────────────────────────────────────────────────────────────────────────────────────────────────┤
 | 0x0000000000001c0b | 0x0000000000000001 | 0x000000000000000a | 0x00000000004307a8 | 0 1 0 0 0 0 0 0 0 0 1 1 1 0 1 1 1 1 1 1 1 1 1 0 0 0 0 0 0 1 0 0 0 0 0 0 0 0 1 1 1 0 0 0 0 0 0 0 0 1 0 0 0 0 0 0 1 1 1 1 1 1 1 1  | 0 1 0 0 0 0 0 0 0 0 2 3 4 0 5 6 7 8 9 10 11 12 13 0 0 0 0 0 0 14 0 0 0 0 0 0 0 0 15 16 17 0 0 0 0 0 0 0 0 18 0 0 0 0 0 0 19 20 21 22 23 24 25 26                                        |
 ├────────────────────┼────────────────────┼────────────────────┼────────────────────┼──────────────────────────────────────────────────────────────────────────────────────────────────────────────────────────────────┼─────────────────────────────────────────────────────────────────────────────────────────────────────────────────────────────────────────────────────────────────────────────────────────┤
 | 0x0000000000001c26 | 0x0000000000000000 | 0x0000000000000005 | 0x00000000004307a8 | 1 0 0 0 0 1 1 1 0 0 0 0 0 1 1 0 1 0 1 1 0 0 0 0 1 1 1 0 0 1 0 0 1 1 1 0 1 1 1 1 1 0 1 1 1 1 0 1 1 1 0 1 1 1 0 0 0 1 1 1 1 1 0 0  | 1 0 0 0 0 2 3 4 0 0 0 0 0 5 6 0 7 0 8 9 0 0 0 0 10 11 12 0 0 13 0 0 14 15 16 0 17 18 19 20 21 0 22 23 24 25 0 26 27 28 0 29 30 31 0 0 0 32 33 34 35 36 0 0                              |
 ├────────────────────┼────────────────────┼────────────────────┼────────────────────┼──────────────────────────────────────────────────────────────────────────────────────────────────────────────────────────────────┼─────────────────────────────────────────────────────────────────────────────────────────────────────────────────────────────────────────────────────────────────────────────────────────┤
 | 0x0000000000001bf9 | 0x0000000000000000 | 0x0000000000000005 | 0x000000000043079c | 1 0 0 0 0 1 1 1 0 0 0 0 1 1 1 0 0 0 0 0 0 0 0 0 1 1 1 1 0 0 1 1 1 1 1 1 0 0 0 0 0 0 0 1 1 0 0 0 0 0 1 1 1 0 1 1 1 1 1 1 1 1 1 1  | 1 0 0 0 0 2 3 4 0 0 0 0 5 6 7 0 0 0 0 0 0 0 0 0 8 9 10 11 0 0 12 13 14 15 16 17 0 0 0 0 0 0 0 18 19 0 0 0 0 0 20 21 22 0 23 24 25 26 27 28 29 30 31 32                                  |
 ├────────────────────┼────────────────────┼────────────────────┼────────────────────┼──────────────────────────────────────────────────────────────────────────────────────────────────────────────────────────────────┼─────────────────────────────────────────────────────────────────────────────────────────────────────────────────────────────────────────────────────────────────────────────────────────┤
 | 0x0000000000001c10 | 0x0000000000000004 | 0x0000000000000005 | 0x00000000004307a8 | 0 0 0 0 1 1 1 0 0 0 0 0 0 0 1 0 0 0 0 1 1 1 0 1 1 0 1 1 0 0 0 1 1 1 0 0 0 1 1 0 0 0 1 1 1 1 0 1 0 1 1 1 0 0 1 0 0 1 1 1 0 1 1 0  | 0 0 0 0 1 2 3 0 0 0 0 0 0 0 4 0 0 0 0 5 6 7 0 8 9 0 10 11 0 0 0 12 13 14 0 0 0 15 16 0 0 0 17 18 19 20 0 21 0 22 23 24 0 0 25 0 0 26 27 28 0 29 30 0                                    |
 ├────────────────────┼────────────────────┼────────────────────┼────────────────────┼──────────────────────────────────────────────────────────────────────────────────────────────────────────────────────────────────┼─────────────────────────────────────────────────────────────────────────────────────────────────────────────────────────────────────────────────────────────────────────────────────────┤
 | 0x0000000000001c2f | 0x0000000000000000 | 0x0000000000000003 | 0x00000000004307a8 | 1 0 0 1 1 1 0 0 1 0 1 0 1 1 0 1 1 0 0 1 1 0 1 1 1 1 0 0 1 1 1 1 0 1 1 1 1 1 0 1 1 1 1 1 0 0 0 0 0 0 0 1 1 0 0 0 0 0 0 0 0 1 1 0  | 1 0 0 2 3 4 0 0 5 0 6 0 7 8 0 9 10 0 0 11 12 0 13 14 15 16 0 0 17 18 19 20 0 21 22 23 24 25 0 26 27 28 29 30 0 0 0 0 0 0 0 31 32 0 0 0 0 0 0 0 0 33 34 0                                |
 ├────────────────────┼────────────────────┼────────────────────┼────────────────────┼──────────────────────────────────────────────────────────────────────────────────────────────────────────────────────────────────┼─────────────────────────────────────────────────────────────────────────────────────────────────────────────────────────────────────────────────────────────────────────────────────────┤
 | 0x0000000000001c19 | 0x0000000000000000 | 0x0000000000000001 | 0x000000000043079c | 1 1 1 1 1 1 0 0 0 0 1 1 0 0 0 0 0 0 1 1 1 1 1 1 1 1 1 1 1 1 1 1 1 1 1 1 1 1 1 1 1 1 1 1 1 1 1 1 1 0 0 0 0 0 0 0 0 0 0 0 0 0 0 1  | 1 2 3 4 5 6 0 0 0 0 7 8 0 0 0 0 0 0 9 10 11 12 13 14 15 16 17 18 19 20 21 22 23 24 25 26 27 28 29 30 31 32 33 34 35 36 37 38 39 0 0 0 0 0 0 0 0 0 0 0 0 0 0 40                          |
 ├────────────────────┼────────────────────┼────────────────────┼────────────────────┼──────────────────────────────────────────────────────────────────────────────────────────────────────────────────────────────────┼─────────────────────────────────────────────────────────────────────────────────────────────────────────────────────────────────────────────────────────────────────────────────────────┤
 | 0x0000000000001c02 | 0x0000000000000000 | 0x0000000000000001 | 0x00000000004307a8 | 1 1 1 0 0 0 1 1 1 1 1 1 1 1 1 0 0 0 0 1 1 0 1 1 0 0 0 0 0 1 1 1 1 1 1 1 1 1 1 1 1 1 1 1 1 1 1 1 1 0 0 0 0 0 0 1 0 0 0 0 0 0 0 0  | 1 2 3 0 0 0 4 5 6 7 8 9 10 11 12 0 0 0 0 13 14 0 15 16 0 0 0 0 0 17 18 19 20 21 22 23 24 25 26 27 28 29 30 31 32 33 34 35 36 0 0 0 0 0 0 37 0 0 0 0 0 0 0 0                             |
 ├────────────────────┼────────────────────┼────────────────────┼────────────────────┼──────────────────────────────────────────────────────────────────────────────────────────────────────────────────────────────────┼─────────────────────────────────────────────────────────────────────────────────────────────────────────────────────────────────────────────────────────────────────────────────────────┤
 | 0x0000000000001c25 | 0x0000000000000000 | 0x0000000000000005 | 0x000000000043079c | 1 0 0 0 0 1 1 1 0 0 0 0 0 1 1 0 1 0 1 1 0 0 0 0 1 1 1 0 0 1 0 0 1 1 1 0 1 1 1 1 1 0 1 1 1 1 0 1 1 1 0 1 1 1 0 0 0 1 1 1 1 1 0 0  | 1 0 0 0 0 2 3 4 0 0 0 0 0 5 6 0 7 0 8 9 0 0 0 0 10 11 12 0 0 13 0 0 14 15 16 0 17 18 19 20 21 0 22 23 24 25 0 26 27 28 0 29 30 31 0 0 0 32 33 34 35 36 0 0                              |
 ├────────────────────┼────────────────────┼────────────────────┼────────────────────┼──────────────────────────────────────────────────────────────────────────────────────────────────────────────────────────────────┼─────────────────────────────────────────────────────────────────────────────────────────────────────────────────────────────────────────────────────────────────────────────────────────┤
 | 0x0000000000001c37 | 0x0000000000000000 | 0x0000000000000009 | 0x000000000043079c | 1 0 0 0 0 0 0 0 0 1 1 1 0 0 1 1 1 1 1 0 0 0 0 1 0 0 0 0 0 0 0 0 0 0 0 0 0 0 0 0 0 0 0 0 0 0 0 0 0 0 0 0 0 0 0 0 0 0 0 0 0 0 0 0  | 1 0 0 0 0 0 0 0 0 2 3 4 0 0 5 6 7 8 9 0 0 0 0 10 0 0 0 0 0 0 0 0 0 0 0 0 0 0 0 0 0 0 0 0 0 0 0 0 0 0 0 0 0 0 0 0 0 0 0 0 0 0 0 0                                                        |
 ├────────────────────┼────────────────────┼────────────────────┼────────────────────┼──────────────────────────────────────────────────────────────────────────────────────────────────────────────────────────────────┼─────────────────────────────────────────────────────────────────────────────────────────────────────────────────────────────────────────────────────────────────────────────────────────┤
 | 0x0000000000001c01 | 0x0000000000000000 | 0x0000000000000001 | 0x000000000043079c | 1 1 1 0 0 0 1 1 1 1 1 1 1 1 1 0 0 0 0 1 1 0 1 1 0 0 0 0 0 1 1 1 1 1 1 1 1 1 1 1 1 1 1 1 1 1 1 1 1 0 0 0 0 0 0 1 0 0 0 0 0 0 0 0  | 1 2 3 0 0 0 4 5 6 7 8 9 10 11 12 0 0 0 0 13 14 0 15 16 0 0 0 0 0 17 18 19 20 21 22 23 24 25 26 27 28 29 30 31 32 33 34 35 36 0 0 0 0 0 0 37 0 0 0 0 0 0 0 0                             |
 ├────────────────────┼────────────────────┼────────────────────┼────────────────────┼──────────────────────────────────────────────────────────────────────────────────────────────────────────────────────────────────┼─────────────────────────────────────────────────────────────────────────────────────────────────────────────────────────────────────────────────────────────────────────────────────────┤
 | 0x0000000000001c08 | 0x0000000000000000 | 0x0000000000000001 | 0x00000000004307a8 | 1 1 1 0 0 0 0 0 0 0 0 0 0 1 1 1 1 0 0 0 0 0 0 0 0 1 0 0 0 0 0 0 0 0 0 0 0 0 1 1 0 0 0 0 0 0 0 1 1 1 1 1 1 1 1 1 1 1 1 0 0 0 0 0  | 1 2 3 0 0 0 0 0 0 0 0 0 0 4 5 6 7 0 0 0 0 0 0 0 0 8 0 0 0 0 0 0 0 0 0 0 0 0 9 10 0 0 0 0 0 0 0 11 12 13 14 15 16 17 18 19 20 21 22 0 0 0 0 0                                            |
 ├────────────────────┼────────────────────┼────────────────────┼────────────────────┼──────────────────────────────────────────────────────────────────────────────────────────────────────────────────────────────────┼─────────────────────────────────────────────────────────────────────────────────────────────────────────────────────────────────────────────────────────────────────────────────────────┤
 | 0x0000000000001bfa | 0x0000000000000000 | 0x0000000000000001 | 0x000000000043078c | 1 1 1 1 1 1 1 1 1 1 1 1 1 1 1 1 1 1 1 1 1 1 1 1 1 1 1 1 1 1 1 1 1 1 1 1 1 1 1 1 1 1 1 1 1 1 1 1 1 1 1 1 1 1 1 1 1 1 1 1 1 1 1 1  | 1 2 3 4 5 6 7 8 9 10 11 12 13 14 15 16 17 18 19 20 21 22 23 24 25 26 27 28 29 30 31 32 33 34 35 36 37 38 39 40 41 42 43 44 45 46 47 48 49 50 51 52 53 54 55 56 57 58 59 60 61 62 63 64  |
 ├────────────────────┼────────────────────┼────────────────────┼────────────────────┼──────────────────────────────────────────────────────────────────────────────────────────────────────────────────────────────────┼─────────────────────────────────────────────────────────────────────────────────────────────────────────────────────────────────────────────────────────────────────────────────────────┤
 | 0x0000000000001c13 | 0x0000000000000000 | 0x0000000000000001 | 0x000000000043079c | 1 1 0 1 1 0 0 1 0 1 1 1 0 1 1 1 1 0 0 0 1 1 0 1 1 0 1 0 0 0 0 0 1 1 1 1 1 1 1 0 0 0 1 0 0 1 0 1 0 0 0 0 0 0 1 1 0 0 0 0 1 0 1 1  | 1 2 0 3 4 0 0 5 0 6 7 8 0 9 10 11 12 0 0 0 13 14 0 15 16 0 17 0 0 0 0 0 18 19 20 21 22 23 24 0 0 0 25 0 0 26 0 27 0 0 0 0 0 0 28 29 0 0 0 0 30 0 31 32                                  |
 ├────────────────────┼────────────────────┼────────────────────┼────────────────────┼──────────────────────────────────────────────────────────────────────────────────────────────────────────────────────────────────┼─────────────────────────────────────────────────────────────────────────────────────────────────────────────────────────────────────────────────────────────────────────────────────────┤
 | 0x0000000000001c2c | 0x0000000000000000 | 0x0000000000000001 | 0x00000000004307a8 | 1 1 1 1 1 1 0 1 1 1 0 1 0 0 1 1 1 0 1 0 1 1 1 1 1 0 1 0 1 0 1 0 1 1 1 0 1 0 0 1 0 0 1 1 1 0 0 1 1 1 1 0 1 0 1 1 1 0 1 1 1 1 0 1  | 1 2 3 4 5 6 0 7 8 9 0 10 0 0 11 12 13 0 14 0 15 16 17 18 19 0 20 0 21 0 22 0 23 24 25 0 26 0 0 27 0 0 28 29 30 0 0 31 32 33 34 0 35 0 36 37 38 0 39 40 41 42 0 43                       |
 ├────────────────────┼────────────────────┼────────────────────┼────────────────────┼──────────────────────────────────────────────────────────────────────────────────────────────────────────────────────────────────┼─────────────────────────────────────────────────────────────────────────────────────────────────────────────────────────────────────────────────────────────────────────────────────────┤
 | 0x0000000000001c1a | 0x0000000000000000 | 0x0000000000000001 | 0x00000000004307a8 | 1 1 1 1 1 1 0 0 0 0 1 1 0 0 0 0 0 0 1 1 1 1 1 1 1 1 1 1 1 1 1 1 1 1 1 1 1 1 1 1 1 1 1 1 1 1 1 1 1 0 0 0 0 0 0 0 0 0 0 0 0 0 0 1  | 1 2 3 4 5 6 0 0 0 0 7 8 0 0 0 0 0 0 9 10 11 12 13 14 15 16 17 18 19 20 21 22 23 24 25 26 27 28 29 30 31 32 33 34 35 36 37 38 39 0 0 0 0 0 0 0 0 0 0 0 0 0 0 40                          |
 ├────────────────────┼────────────────────┼────────────────────┼────────────────────┼──────────────────────────────────────────────────────────────────────────────────────────────────────────────────────────────────┼─────────────────────────────────────────────────────────────────────────────────────────────────────────────────────────────────────────────────────────────────────────────────────────┤
 | 0x0000000000001bfb | 0x0000000000000000 | 0x0000000000000001 | 0x000000000043079c | 1 1 1 1 1 1 1 1 1 1 1 1 1 1 1 1 1 1 1 1 1 1 1 1 1 1 1 1 1 1 1 1 1 1 1 1 1 1 1 1 1 1 1 1 1 1 1 0 0 0 0 0 0 0 0 0 0 0 0 0 0 0 0 1  | 1 2 3 4 5 6 7 8 9 10 11 12 13 14 15 16 17 18 19 20 21 22 23 24 25 26 27 28 29 30 31 32 33 34 35 36 37 38 39 40 41 42 43 44 45 46 47 0 0 0 0 0 0 0 0 0 0 0 0 0 0 0 0 48                  |
 ├────────────────────┼────────────────────┼────────────────────┼────────────────────┼──────────────────────────────────────────────────────────────────────────────────────────────────────────────────────────────────┼─────────────────────────────────────────────────────────────────────────────────────────────────────────────────────────────────────────────────────────────────────────────────────────┤
 | 0x0000000000001c1b | 0x0000000000000000 | 0x0000000000000001 | 0x000000000043078c | 1 1 1 1 1 1 1 1 1 1 1 1 1 1 1 1 1 1 1 1 1 1 1 1 1 1 1 1 1 1 1 1 1 1 1 1 1 1 1 1 1 1 1 1 1 1 1 1 1 1 1 1 1 1 1 1 1 1 1 1 1 1 1 1  | 1 2 3 4 5 6 7 8 9 10 11 12 13 14 15 16 17 18 19 20 21 22 23 24 25 26 27 28 29 30 31 32 33 34 35 36 37 38 39 40 41 42 43 44 45 46 47 48 49 50 51 52 53 54 55 56 57 58 59 60 61 62 63 64  |
 ├────────────────────┼────────────────────┼────────────────────┼────────────────────┼──────────────────────────────────────────────────────────────────────────────────────────────────────────────────────────────────┼─────────────────────────────────────────────────────────────────────────────────────────────────────────────────────────────────────────────────────────────────────────────────────────┤
 | 0x0000000000001c2d | 0x0000000000000000 | 0x0000000000000001 | 0x000000000043078c | 1 1 1 1 1 1 1 1 1 1 1 1 1 1 1 1 1 1 1 1 1 1 1 1 1 1 1 1 1 1 1 1 1 1 1 1 1 1 1 1 1 1 1 1 1 1 1 1 1 1 1 1 1 1 1 1 1 1 1 1 1 1 1 1  | 1 2 3 4 5 6 7 8 9 10 11 12 13 14 15 16 17 18 19 20 21 22 23 24 25 26 27 28 29 30 31 32 33 34 35 36 37 38 39 40 41 42 43 44 45 46 47 48 49 50 51 52 53 54 55 56 57 58 59 60 61 62 63 64  |
 ├────────────────────┼────────────────────┼────────────────────┼────────────────────┼──────────────────────────────────────────────────────────────────────────────────────────────────────────────────────────────────┼─────────────────────────────────────────────────────────────────────────────────────────────────────────────────────────────────────────────────────────────────────────────────────────┤
 | 0x0000000000001c00 | 0x0000000000000000 | 0x0000000000000001 | 0x000000000043078c | 1 1 1 1 1 1 1 1 1 1 1 1 1 1 1 1 1 1 1 1 1 1 1 1 1 1 1 1 1 1 1 1 1 1 1 1 1 1 1 1 1 1 1 1 1 1 1 1 1 1 1 1 1 1 1 1 1 1 1 1 1 1 1 1  | 1 2 3 4 5 6 7 8 9 10 11 12 13 14 15 16 17 18 19 20 21 22 23 24 25 26 27 28 29 30 31 32 33 34 35 36 37 38 39 40 41 42 43 44 45 46 47 48 49 50 51 52 53 54 55 56 57 58 59 60 61 62 63 64  |
 ├────────────────────┼────────────────────┼────────────────────┼────────────────────┼──────────────────────────────────────────────────────────────────────────────────────────────────────────────────────────────────┼─────────────────────────────────────────────────────────────────────────────────────────────────────────────────────────────────────────────────────────────────────────────────────────┤
 | 0x0000000000001c36 | 0x0000000000000000 | 0x0000000000000001 | 0x000000000043078c | 1 1 1 1 1 1 1 1 1 1 1 1 1 1 1 1 1 1 1 1 1 1 1 1 1 1 1 1 0 0 0 0 0 0 0 0 0 0 0 0 0 0 0 0 0 0 0 0 0 0 0 0 0 0 0 0 0 0 0 0 0 0 0 0  | 1 2 3 4 5 6 7 8 9 10 11 12 13 14 15 16 17 18 19 20 21 22 23 24 25 26 27 28 0 0 0 0 0 0 0 0 0 0 0 0 0 0 0 0 0 0 0 0 0 0 0 0 0 0 0 0 0 0 0 0 0 0 0 0                                      |
 ├────────────────────┼────────────────────┼────────────────────┼────────────────────┼──────────────────────────────────────────────────────────────────────────────────────────────────────────────────────────────────┼─────────────────────────────────────────────────────────────────────────────────────────────────────────────────────────────────────────────────────────────────────────────────────────┤
[...]
 ├─────────────┼─────────────┼──────────────────────────────────────────────────────────────────────────────────────────────────────────────────────────────────┤
 | 58          | 39          | 0 0 0 0 0 0 0 0 0 0 0 0 0 0 0 0 0 0 0 0 1 0 0 0 0 0 0 0 0 0 0 0 0 0 0 0 0 0 0 1 0 0 0 0 0 0 0 0 0 0 0 0 0 0 0 0 0 0 1 0 0 0 0 0  |
 ├─────────────┼─────────────┼──────────────────────────────────────────────────────────────────────────────────────────────────────────────────────────────────┤
 | 59          | 58          | 0 0 0 0 0 0 0 0 0 0 0 0 0 0 0 0 0 0 0 0 0 0 0 0 0 0 0 0 0 0 0 0 0 0 0 0 0 0 0 0 0 0 0 0 0 0 0 0 0 0 0 0 0 0 0 0 0 0 1 1 0 0 0 0  |
 ├─────────────┼─────────────┼──────────────────────────────────────────────────────────────────────────────────────────────────────────────────────────────────┤
 | 59          | 57          | 0 0 0 0 0 0 0 0 0 0 0 0 0 0 0 0 0 0 0 0 0 0 0 0 0 0 0 0 0 0 0 0 0 0 0 0 0 0 0 1 0 0 0 0 0 1 0 0 0 1 0 1 0 0 0 0 0 1 0 1 0 0 0 0  |
 ├─────────────┼─────────────┼──────────────────────────────────────────────────────────────────────────────────────────────────────────────────────────────────┤
 | 59          | 60          | 1 1 1 1 1 1 1 1 1 1 1 1 1 1 0 0 0 0 0 0 0 0 0 0 0 0 0 0 0 0 0 0 1 1 1 1 0 0 0 0 0 0 0 0 0 0 0 0 0 0 0 0 0 0 0 1 1 1 1 1 1 1 0 0  |
 ├─────────────┼─────────────┼──────────────────────────────────────────────────────────────────────────────────────────────────────────────────────────────────┤
 | 59          | 42          | 0 0 0 0 0 0 0 0 0 0 0 0 0 0 0 0 0 1 0 0 0 0 0 0 0 0 0 0 0 0 0 0 0 0 0 0 0 0 0 0 0 0 1 0 0 0 0 0 0 0 0 0 0 0 0 0 0 0 0 1 0 0 0 0  |
 ├─────────────┼─────────────┼──────────────────────────────────────────────────────────────────────────────────────────────────────────────────────────────────┤
 | 60          | 38          | 0 0 0 0 0 0 0 0 0 0 0 0 0 0 0 0 0 0 0 0 0 0 0 0 0 0 0 1 0 0 0 0 0 0 0 0 0 0 1 0 0 0 0 0 0 0 0 0 0 0 0 0 0 0 0 0 0 0 0 0 1 0 0 0  |
 ├─────────────┼─────────────┼──────────────────────────────────────────────────────────────────────────────────────────────────────────────────────────────────┤
 | 60          | 61          | 0 0 0 0 0 1 1 1 0 0 0 0 0 0 0 0 0 0 0 0 0 0 0 0 0 0 0 0 0 1 1 1 0 0 0 0 0 0 0 0 0 0 0 0 0 0 0 0 0 0 0 0 0 0 0 0 0 0 0 0 1 1 1 0  |
 ├─────────────┼─────────────┼──────────────────────────────────────────────────────────────────────────────────────────────────────────────────────────────────┤
 | 60          | 54          | 0 0 0 0 0 0 0 0 0 0 0 0 0 0 0 0 0 0 0 0 0 0 0 0 0 0 0 0 0 0 0 0 0 0 0 0 0 0 0 0 0 0 0 0 0 0 0 0 0 0 0 0 0 0 1 0 0 0 0 0 1 0 0 0  |
 ├─────────────┼─────────────┼──────────────────────────────────────────────────────────────────────────────────────────────────────────────────────────────────┤
 | 60          | 59          | 0 0 0 0 0 0 0 0 0 0 0 0 0 0 0 0 0 0 1 1 1 1 1 1 0 1 0 0 0 0 0 0 0 1 0 0 1 0 0 0 0 1 0 0 0 1 1 0 0 0 0 1 1 0 0 0 0 0 0 1 1 0 0 0  |
 ├─────────────┼─────────────┼──────────────────────────────────────────────────────────────────────────────────────────────────────────────────────────────────┤
 | 61          | 55          | 0 0 0 0 0 0 0 0 0 0 0 0 0 0 0 0 0 0 0 0 0 0 0 0 0 0 0 0 0 0 0 1 0 0 0 0 0 0 0 0 0 0 0 0 0 0 0 0 0 1 0 1 0 0 0 1 0 0 0 0 0 1 0 0  |
 ├─────────────┼─────────────┼──────────────────────────────────────────────────────────────────────────────────────────────────────────────────────────────────┤
 | 61          | 7           | 0 0 0 0 0 0 0 1 0 0 0 0 0 0 0 0 0 0 0 0 0 0 0 0 0 0 0 0 0 0 0 0 0 0 0 0 0 0 0 0 0 0 0 0 0 0 0 0 0 0 0 0 0 0 0 0 0 0 0 0 0 1 0 0  |
 ├─────────────┼─────────────┼──────────────────────────────────────────────────────────────────────────────────────────────────────────────────────────────────┤
 | 61          | 53          | 1 0 0 0 0 0 0 0 0 0 0 0 1 0 0 0 0 0 0 0 0 0 0 0 0 1 0 0 1 0 0 0 0 0 1 0 0 0 0 0 0 0 0 0 0 0 0 0 0 0 0 0 0 1 0 0 0 0 0 0 0 1 0 0  |
 ├─────────────┼─────────────┼──────────────────────────────────────────────────────────────────────────────────────────────────────────────────────────────────┤
 | 61          | 62          | 0 0 0 0 0 0 0 0 0 0 0 0 0 0 0 0 0 0 0 0 0 0 0 0 0 0 0 0 0 0 0 0 0 0 0 0 1 1 0 0 0 0 0 0 0 0 0 0 0 0 0 0 0 0 0 0 0 0 0 0 0 1 1 0  |
 ├─────────────┼─────────────┼──────────────────────────────────────────────────────────────────────────────────────────────────────────────────────────────────┤
 | 62          | 56          | 0 0 0 0 0 0 0 0 0 0 1 0 0 0 0 0 0 0 0 0 0 0 0 1 0 0 0 0 0 0 1 0 0 0 0 0 0 0 1 0 0 0 0 0 0 0 0 0 0 0 0 0 0 0 0 0 1 0 0 0 0 0 1 0  |
 ├─────────────┼─────────────┼──────────────────────────────────────────────────────────────────────────────────────────────────────────────────────────────────┤
 | 62          | 59          | 0 0 0 0 0 0 0 0 0 0 0 0 0 0 0 0 0 0 0 0 0 0 0 0 0 0 0 0 0 0 0 0 0 0 0 0 0 0 0 0 0 0 0 0 0 1 0 0 0 0 0 0 1 1 0 1 0 0 0 1 0 0 1 0  |
 ├─────────────┼─────────────┼──────────────────────────────────────────────────────────────────────────────────────────────────────────────────────────────────┤
 | 62          | 28          | 0 0 0 0 0 0 0 0 0 0 0 0 0 0 0 0 0 0 1 0 0 0 1 0 0 0 0 0 1 0 1 0 0 0 0 0 0 0 1 0 1 0 0 0 1 0 0 0 0 0 1 0 1 0 0 0 0 0 0 0 1 0 1 0  |
 ├─────────────┼─────────────┼──────────────────────────────────────────────────────────────────────────────────────────────────────────────────────────────────┤
 | 62          | 63          | 0 0 0 0 0 0 0 0 0 0 0 0 0 0 0 0 0 0 0 0 0 0 0 0 0 0 0 0 0 0 0 0 0 0 0 0 0 0 0 0 0 0 0 0 0 0 0 0 0 0 0 0 0 0 0 0 0 0 0 0 0 0 1 1  |
 ├─────────────┼─────────────┼──────────────────────────────────────────────────────────────────────────────────────────────────────────────────────────────────┤
 | 63          | 62          | 0 0 0 0 0 0 0 0 0 0 0 0 0 0 0 0 0 0 0 0 0 0 0 0 0 0 0 0 0 0 0 0 0 0 0 0 0 0 0 0 0 0 0 0 0 0 0 0 0 0 0 0 0 0 0 0 0 0 0 1 1 1 1 1  |
 ├─────────────┼─────────────┼──────────────────────────────────────────────────────────────────────────────────────────────────────────────────────────────────┤
 | 63          | 49          | 0 1 0 0 0 0 0 1 0 0 0 1 0 1 0 0 0 0 0 0 0 0 0 0 0 0 0 0 0 0 0 0 0 0 0 0 0 0 0 0 0 0 0 0 0 1 0 0 0 1 0 0 0 0 0 0 0 0 0 0 0 0 0 1  |
 ├─────────────┼─────────────┼──────────────────────────────────────────────────────────────────────────────────────────────────────────────────────────────────┤
 | 63          | 56          | 0 0 0 0 0 0 0 0 0 0 0 0 0 0 0 0 0 0 0 1 0 0 1 0 1 1 0 0 1 1 0 0 1 0 0 1 0 1 1 0 0 0 0 0 0 0 0 0 0 0 0 0 0 0 1 0 1 0 0 0 0 0 0 1  |
 ├─────────────┼─────────────┼──────────────────────────────────────────────────────────────────────────────────────────────────────────────────────────────────┤
 | 63          | 60          | 0 0 0 0 0 0 0 0 0 0 0 0 0 0 0 0 0 0 0 0 0 0 0 0 0 0 0 0 0 0 0 0 0 0 0 0 0 0 0 0 0 0 0 0 0 0 0 0 0 0 0 0 0 0 0 1 1 1 1 1 1 1 1 1  |
 └─────────────┴─────────────┴──────────────────────────────────────────────────────────────────────────────────────────────────────────────────────────────────┘
Pattern table end
Prefetch buffer begin
 ┌────────────────────┬────────────────────┬────────────────────┬────────────────────┬──────────────────────────────────────────────────────────────────────────────────────────────────────────────────────────────────┐
 | RegionNum          | Trigger            | Second             | Meta               | Pattern                                                                                                                          |
 ├────────────────────┼────────────────────┼────────────────────┼────────────────────┼──────────────────────────────────────────────────────────────────────────────────────────────────────────────────────────────────┤
 | 0x0000000000000d37 | 0x0000000000000016 | 0x0000000000000017 | 0x0000000000000001 | 1 1 1 1 1 1 1 1 1 1 1 1 1 1 1 1 1 1 1 1 1 1 1 0 0 0 0 0 0 0 0 0 0 0 0 0 0 0 0 0 0 0 0 0 0 0 0 0 0 0 0 0 0 0 0 0 0 0 0 0 0 0 0 0  |
 ├────────────────────┼────────────────────┼────────────────────┼────────────────────┼──────────────────────────────────────────────────────────────────────────────────────────────────────────────────────────────────┤
 | 0x0000000000001a9e | 0x000000000000003f | 0x000000000000003e | 0x0000000000000001 | 0 0 0 0 0 0 0 0 0 0 0 0 0 0 0 1 1 1 1 1 1 1 1 1 1 1 1 1 1 1 1 1 1 1 1 1 1 1 1 1 1 1 1 1 1 1 1 1 1 1 1 1 1 1 1 1 1 1 1 0 0 0 0 1  |
 ├────────────────────┼────────────────────┼────────────────────┼────────────────────┼──────────────────────────────────────────────────────────────────────────────────────────────────────────────────────────────────┤
 | 0x0000000000000b8c | 0x0000000000000039 | 0x000000000000003a | 0x0000000000000001 | 0 0 0 0 0 0 0 0 0 0 0 0 0 0 1 1 1 1 1 1 1 1 1 1 1 1 1 1 1 1 1 1 1 1 1 1 1 1 1 1 1 1 1 1 1 1 1 1 1 1 1 1 1 1 1 1 1 1 0 0 0 0 0 0  |
 ├────────────────────┼────────────────────┼────────────────────┼────────────────────┼──────────────────────────────────────────────────────────────────────────────────────────────────────────────────────────────────┤
 | 0x0000000000000e7a | 0x0000000000000036 | 0x0000000000000036 | 0x0000000000000000 | 0 0 0 0 0 0 0 0 0 0 0 0 0 0 0 0 0 0 0 0 0 0 0 0 0 0 0 0 0 0 0 0 0 0 0 0 0 0 0 0 0 0 0 0 0 0 0 0 0 0 0 0 0 0 0 0 0 1 1 1 1 0 0 0  |
 ├────────────────────┼────────────────────┼────────────────────┼────────────────────┼──────────────────────────────────────────────────────────────────────────────────────────────────────────────────────────────────┤
 | 0x0000000000001a85 | 0x0000000000000037 | 0x0000000000000037 | 0x0000000000000000 | 0 0 0 0 0 0 0 0 0 0 0 0 0 0 0 0 0 0 0 0 0 0 0 0 0 0 0 0 0 0 0 0 0 0 0 0 0 0 0 0 0 0 0 0 0 0 0 0 0 0 0 0 0 0 0 0 0 0 0 0 0 1 0 0  |
 ├────────────────────┼────────────────────┼────────────────────┼────────────────────┼──────────────────────────────────────────────────────────────────────────────────────────────────────────────────────────────────┤
 | 0x0000000000000d34 | 0x000000000000001e | 0x000000000000001f | 0x0000000000000001 | 0 0 0 0 0 0 0 0 0 0 0 0 0 0 0 0 0 0 0 0 0 0 0 0 0 0 0 0 0 0 0 0 1 0 0 0 0 0 0 0 0 0 0 0 0 0 0 0 0 0 0 0 0 0 0 0 0 0 0 0 0 0 0 0  |
 ├────────────────────┼────────────────────┼────────────────────┼────────────────────┼──────────────────────────────────────────────────────────────────────────────────────────────────────────────────────────────────┤
 | 0x0000000000000d54 | 0x0000000000000039 | 0x0000000000000038 | 0x0000000000000001 | 0 0 0 0 0 0 0 0 0 0 0 0 0 0 0 0 0 0 0 0 0 0 0 0 0 0 0 0 0 0 0 0 0 0 0 0 0 0 0 0 0 0 0 0 0 0 0 0 0 0 0 0 0 0 0 1 0 1 0 0 0 0 0 0  |
 ├────────────────────┼────────────────────┼────────────────────┼────────────────────┼──────────────────────────────────────────────────────────────────────────────────────────────────────────────────────────────────┤
 | 0x000000000000164a | 0x0000000000000008 | 0x0000000000000009 | 0x0000000000000001 | 0 0 0 0 0 0 0 0 1 0 0 0 0 0 0 0 0 1 1 1 1 1 0 1 1 1 1 1 1 1 1 1 1 1 1 1 1 1 0 1 1 1 1 0 1 1 1 1 1 1 1 1 1 0 1 1 1 1 1 1 1 1 1 1  |
 ├────────────────────┼────────────────────┼────────────────────┼────────────────────┼──────────────────────────────────────────────────────────────────────────────────────────────────────────────────────────────────┤
 | 0x0000000000000b79 | 0x0000000000000039 | 0x000000000000003a | 0x0000000000000001 | 0 0 0 0 0 0 0 0 0 0 0 0 0 0 1 1 1 1 1 1 1 1 1 1 1 1 1 1 1 1 1 1 1 1 1 1 1 1 1 1 1 1 1 1 1 1 1 1 1 1 1 1 1 1 1 1 1 1 0 0 0 0 0 0  |
 ├────────────────────┼────────────────────┼────────────────────┼────────────────────┼──────────────────────────────────────────────────────────────────────────────────────────────────────────────────────────────────┤
 | 0x0000000000000c4d | 0x000000000000002b | 0x000000000000002c | 0x0000000000000001 | 0 0 0 0 0 0 0 0 0 0 0 0 0 0 0 0 0 0 1 1 0 0 0 0 0 0 0 0 0 0 0 0 0 0 0 0 0 0 0 0 0 0 0 0 0 1 0 0 0 0 0 0 0 0 0 0 0 0 0 0 0 0 0 0  |
 ├────────────────────┼────────────────────┼────────────────────┼────────────────────┼──────────────────────────────────────────────────────────────────────────────────────────────────────────────────────────────────┤
 | 0x0000000000000e9e | 0x0000000000000000 | 0x0000000000000001 | 0x0000000000000002 | 1 0 0 0 0 0 0 0 0 0 0 0 0 0 0 0 0 2 2 2 2 2 2 2 2 2 2 2 2 2 2 2 2 2 2 2 2 2 2 2 2 2 2 2 2 2 2 2 2 2 2 2 2 2 2 2 2 2 2 2 2 2 2 2  |
 ├────────────────────┼────────────────────┼────────────────────┼────────────────────┼──────────────────────────────────────────────────────────────────────────────────────────────────────────────────────────────────┤
 | 0x0000000000001649 | 0x0000000000000005 | 0x0000000000000006 | 0x0000000000000001 | 0 0 0 0 0 1 0 1 1 0 0 0 1 1 0 1 1 0 1 0 0 1 0 0 0 0 0 0 1 1 1 1 0 1 0 0 0 0 0 1 1 1 1 1 1 1 1 1 0 1 0 0 1 0 0 0 0 0 1 1 1 1 0 0  |
 ├────────────────────┼────────────────────┼────────────────────┼────────────────────┼──────────────────────────────────────────────────────────────────────────────────────────────────────────────────────────────────┤
 | 0x0000000000000c69 | 0x000000000000002b | 0x000000000000002a | 0x0000000000000001 | 0 0 0 0 0 0 0 0 0 0 0 0 0 0 0 0 0 0 0 0 0 0 0 0 0 0 0 0 0 0 0 0 0 0 0 0 0 0 0 0 0 0 0 0 1 0 0 0 0 0 0 0 0 0 0 0 0 0 0 0 0 0 0 0  |
 ├────────────────────┼────────────────────┼────────────────────┼────────────────────┼──────────────────────────────────────────────────────────────────────────────────────────────────────────────────────────────────┤
 | 0x000000000000169d | 0x0000000000000004 | 0x0000000000000005 | 0x0000000000000001 | 0 0 0 0 1 0 0 0 0 0 0 0 0 0 0 0 0 0 0 0 0 0 0 0 1 0 0 0 0 0 0 0 1 1 1 0 0 0 0 0 1 1 1 1 0 1 1 1 1 1 1 1 1 1 1 0 0 0 0 0 0 0 0 0  |
 ├────────────────────┼────────────────────┼────────────────────┼────────────────────┼──────────────────────────────────────────────────────────────────────────────────────────────────────────────────────────────────┤
 | 0x0000000000000e7b | 0x0000000000000031 | 0x0000000000000030 | 0x0000000000000001 | 0 0 0 0 0 0 0 0 0 0 0 0 0 0 0 0 0 0 0 0 0 0 0 0 0 0 0 0 0 0 0 0 0 0 0 0 0 0 0 0 0 0 0 0 0 0 0 1 0 0 0 0 0 0 0 0 0 0 0 0 0 0 0 0  |
 ├────────────────────┼────────────────────┼────────────────────┼────────────────────┼──────────────────────────────────────────────────────────────────────────────────────────────────────────────────────────────────┤
 | 0x0000000000000d41 | 0x0000000000000029 | 0x0000000000000028 | 0x0000000000000001 | 0 0 0 0 0 0 0 0 0 0 0 0 0 0 0 0 0 0 0 0 0 0 0 0 0 0 0 1 1 0 0 0 0 0 0 0 0 0 0 0 0 0 0 0 0 0 0 0 0 0 0 0 0 0 0 0 0 0 0 0 0 0 0 0  |
 ├────────────────────┼────────────────────┼────────────────────┼────────────────────┼──────────────────────────────────────────────────────────────────────────────────────────────────────────────────────────────────┤
 | 0x0000000000000d3c | 0x000000000000003e | 0x000000000000003f | 0x0000000000000001 | 0 0 0 0 0 0 0 0 0 0 0 0 0 0 0 0 0 0 0 0 0 0 0 0 0 1 1 0 0 0 0 0 0 0 0 0 0 0 0 0 0 0 0 0 0 0 0 0 0 0 0 0 0 0 0 0 0 0 0 0 0 0 0 0  |
 ├────────────────────┼────────────────────┼────────────────────┼────────────────────┼──────────────────────────────────────────────────────────────────────────────────────────────────────────────────────────────────┤
 | 0x0000000000000c8f | 0x000000000000000a | 0x000000000000000b | 0x0000000000000001 | 0 0 0 0 0 0 0 0 0 0 1 0 1 0 0 0 0 0 0 0 0 0 0 0 0 0 0 0 0 0 0 0 0 0 0 0 0 0 0 0 0 0 0 0 0 0 0 0 0 0 0 0 0 0 0 0 0 0 0 0 0 0 0 0  |
 ├────────────────────┼────────────────────┼────────────────────┼────────────────────┼──────────────────────────────────────────────────────────────────────────────────────────────────────────────────────────────────┤
 | 0x000000000000099d | 0x0000000000000029 | 0x0000000000000029 | 0x0000000000000003 | 0 0 0 0 0 0 0 0 0 0 0 0 0 0 0 0 0 0 0 0 0 0 0 0 0 0 0 0 0 0 0 0 0 0 0 0 0 0 0 0 0 0 0 0 0 0 0 0 0 0 0 0 0 0 0 0 0 0 0 1 0 0 0 0  |
 ├────────────────────┼────────────────────┼────────────────────┼────────────────────┼──────────────────────────────────────────────────────────────────────────────────────────────────────────────────────────────────┤
 | 0x00000000000016c0 | 0x0000000000000000 | 0x0000000000000001 | 0x0000000000000002 | 1 0 0 0 0 0 0 0 0 0 0 0 0 0 1 1 1 1 0 2 2 2 2 2 2 2 2 2 2 2 2 2 0 0 0 0 0 0 0 0 0 0 0 0 2 2 2 2 2 2 2 2 2 2 2 2 2 2 2 2 2 2 2 2  |
 ├────────────────────┼────────────────────┼────────────────────┼────────────────────┼──────────────────────────────────────────────────────────────────────────────────────────────────────────────────────────────────┤
 | 0x0000000000001647 | 0x0000000000000005 | 0x0000000000000006 | 0x0000000000000001 | 0 0 0 0 0 1 0 1 1 0 0 0 1 1 0 1 1 0 1 0 0 1 0 0 0 0 0 0 1 1 1 1 0 1 0 0 0 0 0 1 1 1 1 1 1 1 1 1 0 1 0 0 1 0 0 0 0 0 1 1 1 1 0 0  |
 ├────────────────────┼────────────────────┼────────────────────┼────────────────────┼──────────────────────────────────────────────────────────────────────────────────────────────────────────────────────────────────┤
 | 0x000000000000191d | 0x0000000000000000 | 0x0000000000000002 | 0x0000000000000001 | 1 0 0 0 0 0 0 0 0 0 0 0 0 0 0 0 0 0 0 0 0 0 0 0 0 0 0 0 0 0 0 0 0 0 0 0 0 0 0 0 1 0 1 1 1 1 0 1 1 0 0 0 0 0 0 0 0 0 0 0 0 0 0 0  |
 ├────────────────────┼────────────────────┼────────────────────┼────────────────────┼──────────────────────────────────────────────────────────────────────────────────────────────────────────────────────────────────┤
 | 0x0000000000000d30 | 0x0000000000000016 | 0x0000000000000017 | 0x0000000000000001 | 0 0 0 0 0 0 0 0 0 0 0 0 0 0 0 1 1 1 1 1 1 1 1 0 0 0 0 0 0 0 0 0 0 0 0 0 0 0 0 0 0 0 0 0 0 0 0 0 0 0 0 0 0 0 0 0 0 0 0 0 0 0 0 0  |
 ├────────────────────┼────────────────────┼────────────────────┼────────────────────┼──────────────────────────────────────────────────────────────────────────────────────────────────────────────────────────────────┤
 | 0x0000000000000d36 | 0x000000000000002d | 0x000000000000002e | 0x0000000000000001 | 0 0 0 0 0 0 0 0 0 0 0 0 0 0 0 0 0 0 0 0 0 0 0 0 0 0 0 0 0 0 0 0 0 0 0 0 1 0 0 1 1 1 1 1 1 1 0 1 0 0 0 0 0 0 0 0 0 0 0 0 0 0 0 0  |
 ├────────────────────┼────────────────────┼────────────────────┼────────────────────┼──────────────────────────────────────────────────────────────────────────────────────────────────────────────────────────────────┤
 | 0x000000000000164b | 0x0000000000000008 | 0x0000000000000009 | 0x0000000000000001 | 0 0 0 0 0 0 0 0 1 0 1 0 0 1 1 1 1 1 1 1 1 1 0 1 1 1 1 1 1 1 1 1 1 1 1 1 1 1 0 1 1 1 1 0 1 1 1 1 1 1 1 1 1 0 1 1 1 1 1 1 1 1 1 1  |
 ├────────────────────┼────────────────────┼────────────────────┼────────────────────┼──────────────────────────────────────────────────────────────────────────────────────────────────────────────────────────────────┤
 | 0x0000000000000b7e | 0x0000000000000008 | 0x0000000000000008 | 0x0000000000000000 | 0 0 0 1 1 1 0 0 0 0 0 0 0 0 0 0 0 0 0 0 0 0 0 0 0 0 0 0 0 0 0 0 0 0 0 0 0 0 0 0 0 0 0 0 0 0 0 0 0 0 0 0 0 0 0 0 0 0 0 0 0 0 0 0  |
 ├────────────────────┼────────────────────┼────────────────────┼────────────────────┼──────────────────────────────────────────────────────────────────────────────────────────────────────────────────────────────────┤
 | 0x0000000000000714 | 0x0000000000000006 | 0x0000000000000006 | 0x0000000000000000 | 0 1 1 0 0 0 0 0 0 0 0 0 0 0 0 0 0 0 0 0 0 0 0 0 0 0 0 0 0 0 0 0 0 0 0 0 0 0 0 0 0 0 0 0 0 0 0 0 0 0 0 0 0 0 0 0 0 0 0 0 0 0 0 0  |
 ├────────────────────┼────────────────────┼────────────────────┼────────────────────┼──────────────────────────────────────────────────────────────────────────────────────────────────────────────────────────────────┤
 | 0x0000000000000940 | 0x0000000000000006 | 0x0000000000000006 | 0x0000000000000000 | 0 1 1 0 0 0 0 0 0 0 0 0 0 0 0 0 0 0 0 0 0 0 0 0 0 0 0 0 0 0 0 0 0 0 0 0 0 0 0 0 0 0 0 0 0 0 0 0 0 0 0 0 0 0 0 0 0 0 0 0 0 0 0 0  |
 └────────────────────┴────────────────────┴────────────────────┴────────────────────┴──────────────────────────────────────────────────────────────────────────────────────────────────────────────────────────────────┘
Prefetch buffer end
cpu0_L2C
Num Con Filled: 501330
Num Con Useful: 104504 Useless:62567 Accuracy: 62.5507
LLC
