41 41 41
Available num physical pages: 35184372088576
WARNING: physical memory size is smaller than virtual memory size

*** ChampSim Multicore Out-of-Order Simulator ***

Warmup Instructions: 20000000
Simulation Instructions: 50000000
Number of CPUs: 1
Page size: 4096

Basic BTB sets: 1024 ways: 8 indirect buffer size: 4096 RAS size: 64
cpu0_L1D Gaze + RTT (Region Transition Table) prefetcher
Pattern Table index_len: 6
Off-chip DRAM Size: 32 GiB Channels: 4 Width: 64-bit Data Rate: 3200 MT/s
Heartbeat CPU 0 instructions: 10000003 cycles: 2603679 heartbeat IPC: 3.84073 cumulative IPC: 3.84073 (Simulation time: 0 hr 0 min 12 sec) 
Heartbeat CPU 0 instructions: 20000001 cycles: 5176930 heartbeat IPC: 3.88614 cumulative IPC: 3.8633 (Simulation time: 0 hr 0 min 32 sec) 
Max paddr 49M
Warmup finished CPU 0 instructions: 20000001 cycles: 5176931 cumulative IPC: 3.8633 (Simulation time: 0 hr 0 min 32 sec) 

Warmup complete CPU 0 instructions: 20000001 cycles: 5176931 (Simulation time: 0 hr 0 min 32 sec) 

Heartbeat CPU 0 instructions: 30000004 cycles: 12062030 heartbeat IPC: 1.45242 cumulative IPC: 1.45242 (Simulation time: 0 hr 1 min 6 sec) 
*** Reached end of trace: /Users/srikarkopanati/Documents/project/Gaze-Spatial-Prefetcher/traces/compute_fp_1_new.xz
Heartbeat CPU 0 instructions: 40000000 cycles: 23476827 heartbeat IPC: 0.876056 cumulative IPC: 1.09291 (Simulation time: 0 hr 1 min 30 sec) 
Heartbeat CPU 0 instructions: 50000001 cycles: 31597062 heartbeat IPC: 1.2315 cumulative IPC: 1.1355 (Simulation time: 0 hr 1 min 57 sec) 
Heartbeat CPU 0 instructions: 60000001 cycles: 38379380 heartbeat IPC: 1.47443 cumulative IPC: 1.20474 (Simulation time: 0 hr 2 min 31 sec) 
*** Reached end of trace: /Users/srikarkopanati/Documents/project/Gaze-Spatial-Prefetcher/traces/compute_fp_1_new.xz
Heartbeat CPU 0 instructions: 70000001 cycles: 49779163 heartbeat IPC: 0.87721 cumulative IPC: 1.12103 (Simulation time: 0 hr 2 min 55 sec) 
Max paddr 68M
Simulation finished CPU 0 instructions: 50000000 cycles: 44602233 cumulative IPC: 1.12103 (Simulation time: 0 hr 2 min 55 sec) 

Simulation complete CPU 0 instructions: 50000000 cycles: 44602233 (Simulation time: 0 hr 2 min 55 sec) 


ChampSim completed all CPUs

[
  {
    "name": "Simulation",
    "traces": [
      "/Users/srikarkopanati/Documents/project/Gaze-Spatial-Prefetcher/traces/compute_fp_1_new.xz"
    ],
    "roi": {
      "cores": [
        {
          "instructions": 50000000,
          "cycles": 44602233,
          "Avg ROB occupancy at mispredict": 32.2998, 
          "mispredict": {
            "BRANCH_DIRECT_JUMP": 3,
            "BRANCH_INDIRECT": 31819,
            "BRANCH_CONDITIONAL": 368171,
            "BRANCH_DIRECT_CALL": 0,
            "BRANCH_INDIRECT_CALL": 25,
            "BRANCH_RETURN": 2
          }
        }
      ],
      "cpu0_L1I": {
        "LOAD": {
          "hit":2086,
          "miss":1556
        },
        "RFO": {
          "hit":0,
          "miss":0
        },
        "PREFETCH": {
          "hit":0,
          "miss":0
        },
        "WRITE": {
          "hit":0,
          "miss":0
        },
        "TRANSLATION": {
          "hit":0,
          "miss":0
        },
        "mshr full": 0,
        "prefetch requested": 0,
        "prefetch issued": 0,
        "prefetch filled": 0,
        "prefetch useful": 0,
        "prefetch useless": 0,
        "prefetch late": 0,
        "pf_useful_at_l2_from_l1":          0,
        "pf_late_at_l2_from_l1":          0,
        "pf_useless_at_l2_from_l1":          0,
        "pf_at_l2_to_l1":          0,
        "pf_fill_this_level":          0,
        "miss latency": 5.86022,
        "cache queues": {
          "PQ_ACCESS": 0,
          "PQ_FULL": 0,
          "PQ_TO_CACHE": 0,
          "PQ_MERGED": 0,
          "RQ_ACCESS": 3686,
          "RQ_MERGED": 44,
          "RQ_FULL": 0,
          "WQ_ACCESS": 0,
          "WQ_MERGED": 0,
          "WQ_FULL": 0
        }
      },
      "cpu0_ITLB": {
        "LOAD": {
          "hit":2584,
          "miss":423
        },
        "RFO": {
          "hit":0,
          "miss":0
        },
        "PREFETCH": {
          "hit":0,
          "miss":0
        },
        "WRITE": {
          "hit":0,
          "miss":0
        },
        "TRANSLATION": {
          "hit":0,
          "miss":0
        },
        "mshr full": 0,
        "prefetch requested": 0,
        "prefetch issued": 0,
        "prefetch filled": 0,
        "prefetch useful": 0,
        "prefetch useless": 0,
        "prefetch late": 0,
        "pf_useful_at_l2_from_l1":          0,
        "pf_late_at_l2_from_l1":          0,
        "pf_useless_at_l2_from_l1":          0,
        "pf_at_l2_to_l1":          0,
        "pf_fill_this_level":          0,
        "miss latency": 2.82521,
        "cache queues": {
          "PQ_ACCESS": 0,
          "PQ_FULL": 0,
          "PQ_TO_CACHE": 0,
          "PQ_MERGED": 0,
          "RQ_ACCESS": 3007,
          "RQ_MERGED": 0,
          "RQ_FULL": 0,
          "WQ_ACCESS": 0,
          "WQ_MERGED": 0,
          "WQ_FULL": 0
        }
      },
      "cpu0_DTLB": {
        "LOAD": {
          "hit":16378144,
          "miss":1085200
        },
        "RFO": {
          "hit":0,
          "miss":0
        },
        "PREFETCH": {
          "hit":0,
          "miss":0
        },
        "WRITE": {
          "hit":0,
          "miss":0
        },
        "TRANSLATION": {
          "hit":0,
          "miss":0
        },
        "mshr full": 4186,
        "prefetch requested": 0,
        "prefetch issued": 0,
        "prefetch filled": 0,
        "prefetch useful": 0,
        "prefetch useless": 0,
        "prefetch late": 0,
        "pf_useful_at_l2_from_l1":          0,
        "pf_late_at_l2_from_l1":          0,
        "pf_useless_at_l2_from_l1":          0,
        "pf_at_l2_to_l1":          0,
        "pf_fill_this_level":          0,
        "miss latency": 0.269693,
        "cache queues": {
          "PQ_ACCESS": 0,
          "PQ_FULL": 0,
          "PQ_TO_CACHE": 0,
          "PQ_MERGED": 0,
          "RQ_ACCESS": 18821400,
          "RQ_MERGED": 0,
          "RQ_FULL": 1358056,
          "WQ_ACCESS": 0,
          "WQ_MERGED": 0,
          "WQ_FULL": 0
        }
      },
      "cpu0_STLB": {
        "LOAD": {
          "hit":146160,
          "miss":56735
        },
        "RFO": {
          "hit":0,
          "miss":0
        },
        "PREFETCH": {
          "hit":0,
          "miss":0
        },
        "WRITE": {
          "hit":0,
          "miss":0
        },
        "TRANSLATION": {
          "hit":0,
          "miss":0
        },
        "mshr full": 0,
        "prefetch requested": 0,
        "prefetch issued": 0,
        "prefetch filled": 0,
        "prefetch useful": 0,
        "prefetch useless": 0,
        "prefetch late": 0,
        "pf_useful_at_l2_from_l1":          0,
        "pf_late_at_l2_from_l1":          0,
        "pf_useless_at_l2_from_l1":          0,
        "pf_at_l2_to_l1":          0,
        "pf_fill_this_level":          0,
        "miss latency": 3.31659,
        "cache queues": {
          "PQ_ACCESS": 0,
          "PQ_FULL": 0,
          "PQ_TO_CACHE": 0,
          "PQ_MERGED": 0,
          "RQ_ACCESS": 202895,
          "RQ_MERGED": 0,
          "RQ_FULL": 0,
          "WQ_ACCESS": 0,
          "WQ_MERGED": 0,
          "WQ_FULL": 0
        }
      },
      "cpu0_L1D": {
        "LOAD": {
          "hit":5154971,
          "miss":9298237
        },
        "RFO": {
          "hit":0,
          "miss":0
        },
        "PREFETCH": {
          "hit":5524211,
          "miss":1964896
        },
        "WRITE": {
          "hit":3456336,
          "miss":152076
        },
        "TRANSLATION": {
          "hit":27987,
          "miss":29266
        },
        "mshr full": 4558697,
        "prefetch requested": 11167392,
        "prefetch issued": 11167392,
        "prefetch filled": 736415,
        "prefetch useful": 757548,
        "prefetch useless": 191934,
        "prefetch late": 213187,
        "pf_useful_at_l2_from_l1":          0,
        "pf_late_at_l2_from_l1":          0,
        "pf_useless_at_l2_from_l1":          0,
        "pf_at_l2_to_l1":        568,
        "pf_fill_this_level":     732468,
        "miss latency": 1.75125,
        "cache queues": {
          "PQ_ACCESS": 11167392,
          "PQ_FULL": 0,
          "PQ_TO_CACHE": 11167392,
          "PQ_MERGED": 3678300,
          "RQ_ACCESS": 35520556,
          "RQ_MERGED": 34176,
          "RQ_FULL": 21033205,
          "WQ_ACCESS": 3614535,
          "WQ_MERGED": 0,
          "WQ_FULL": 6123
        }
      },
      "cpu0_L2C": {
        "LOAD": {
          "hit":143181,
          "miss":1578934
        },
        "RFO": {
          "hit":7748,
          "miss":18763
        },
        "PREFETCH": {
          "hit":65595,
          "miss":1023421
        },
        "WRITE": {
          "hit":974851,
          "miss":0
        },
        "TRANSLATION": {
          "hit":9653,
          "miss":19613
        },
        "mshr full": 62232,
        "prefetch requested": 0,
        "prefetch issued": 0,
        "prefetch filled": 971767,
        "prefetch useful": 0,
        "prefetch useless": 0,
        "prefetch late": 0,
        "pf_useful_at_l2_from_l1":      62737,
        "pf_late_at_l2_from_l1":      38636,
        "pf_useless_at_l2_from_l1":      31027,
        "pf_at_l2_to_l1":      48248,
        "pf_fill_this_level":     103668,
        "miss latency": 8.97097,
        "cache queues": {
          "PQ_ACCESS": 1109462,
          "PQ_FULL": 19840,
          "PQ_TO_CACHE": 1089622,
          "PQ_MERGED": 603,
          "RQ_ACCESS": 1777921,
          "RQ_MERGED": 0,
          "RQ_FULL": 0,
          "WQ_ACCESS": 974853,
          "WQ_MERGED": 0,
          "WQ_FULL": 0
        }
      },
      "LLC": {
        "LOAD": {
          "hit": [658002],
          "miss": [882283]
        },
        "RFO": {
          "hit": [7782],
          "miss": [10981]
        },
        "PREFETCH": {
          "hit": [134550],
          "miss": [875853]
        },
        "WRITE": {
          "hit": [887173],
          "miss": [0]
        },
        "TRANSLATION": {
          "hit": [14638],
          "miss": [4975]
        },
        "mshr full": 0,
        "prefetch requested": 0,
        "prefetch issued": 0,
        "prefetch filled": 875853,
        "prefetch useful": 0,
        "prefetch useless": 0,
        "prefetch late": 0,
        "pf_useful_at_l2_from_l1":          0,
        "pf_late_at_l2_from_l1":          0,
        "pf_useless_at_l2_from_l1":          0,
        "pf_at_l2_to_l1":       1500,
        "pf_fill_this_level":          0,
        "miss latency": 12.057,
        "cache queues": {
          "PQ_ACCESS": 1010403,
          "PQ_FULL": 0,
          "PQ_TO_CACHE": 1010403,
          "PQ_MERGED": 0,
          "RQ_ACCESS": 1578674,
          "RQ_MERGED": 0,
          "RQ_FULL": 0,
          "WQ_ACCESS": 887173,
          "WQ_MERGED": 0,
          "WQ_FULL": 0
        }
      },
      "DRAM": [
        {
          "RQ ROW_BUFFER_HIT": 253916,
          "RQ ROW_BUFFER_MISS": 189054,
          "PQ FULL": 0,
          "WQ ROW_BUFFER_HIT": 21087,
          "WQ ROW_BUFFER_MISS": 43302,
          "WQ FULL": 0,
          "AVG DBUS CONGESTED CYCLE": 3.68155
        },
        {
          "RQ ROW_BUFFER_HIT": 254118,
          "RQ ROW_BUFFER_MISS": 189098,
          "PQ FULL": 0,
          "WQ ROW_BUFFER_HIT": 21109,
          "WQ ROW_BUFFER_MISS": 43425,
          "WQ FULL": 0,
          "AVG DBUS CONGESTED CYCLE": 3.6914
        },
        {
          "RQ ROW_BUFFER_HIT": 252659,
          "RQ ROW_BUFFER_MISS": 190462,
          "PQ FULL": 0,
          "WQ ROW_BUFFER_HIT": 20550,
          "WQ ROW_BUFFER_MISS": 43764,
          "WQ FULL": 0,
          "AVG DBUS CONGESTED CYCLE": 3.67543
        },
        {
          "RQ ROW_BUFFER_HIT": 252703,
          "RQ ROW_BUFFER_MISS": 191340,
          "PQ FULL": 0,
          "WQ ROW_BUFFER_HIT": 20651,
          "WQ ROW_BUFFER_MISS": 43698,
          "WQ FULL": 0,
          "AVG DBUS CONGESTED CYCLE": 3.67561
        }
      ]

    },
    "sim": {
      "cores": [
        {
          "instructions": 50000000,
          "cycles": 44602233,
          "Avg ROB occupancy at mispredict": 32.2998, 
          "mispredict": {
            "BRANCH_DIRECT_JUMP": 3,
            "BRANCH_INDIRECT": 31819,
            "BRANCH_CONDITIONAL": 368171,
            "BRANCH_DIRECT_CALL": 0,
            "BRANCH_INDIRECT_CALL": 25,
            "BRANCH_RETURN": 2
          }
        }
      ],
      "cpu0_L1I": {
        "LOAD": {
          "hit":2086,
          "miss":1556
        },
        "RFO": {
          "hit":0,
          "miss":0
        },
        "PREFETCH": {
          "hit":0,
          "miss":0
        },
        "WRITE": {
          "hit":0,
          "miss":0
        },
        "TRANSLATION": {
          "hit":0,
          "miss":0
        },
        "mshr full": 0,
        "prefetch requested": 0,
        "prefetch issued": 0,
        "prefetch filled": 0,
        "prefetch useful": 0,
        "prefetch useless": 0,
        "prefetch late": 0,
        "pf_useful_at_l2_from_l1":          0,
        "pf_late_at_l2_from_l1":          0,
        "pf_useless_at_l2_from_l1":          0,
        "pf_at_l2_to_l1":          0,
        "pf_fill_this_level":          0,
        "miss latency": 5.86022,
        "cache queues": {
          "PQ_ACCESS": 0,
          "PQ_FULL": 0,
          "PQ_TO_CACHE": 0,
          "PQ_MERGED": 0,
          "RQ_ACCESS": 3686,
          "RQ_MERGED": 44,
          "RQ_FULL": 0,
          "WQ_ACCESS": 0,
          "WQ_MERGED": 0,
          "WQ_FULL": 0
        }
      },
      "cpu0_ITLB": {
        "LOAD": {
          "hit":2584,
          "miss":423
        },
        "RFO": {
          "hit":0,
          "miss":0
        },
        "PREFETCH": {
          "hit":0,
          "miss":0
        },
        "WRITE": {
          "hit":0,
          "miss":0
        },
        "TRANSLATION": {
          "hit":0,
          "miss":0
        },
        "mshr full": 0,
        "prefetch requested": 0,
        "prefetch issued": 0,
        "prefetch filled": 0,
        "prefetch useful": 0,
        "prefetch useless": 0,
        "prefetch late": 0,
        "pf_useful_at_l2_from_l1":          0,
        "pf_late_at_l2_from_l1":          0,
        "pf_useless_at_l2_from_l1":          0,
        "pf_at_l2_to_l1":          0,
        "pf_fill_this_level":          0,
        "miss latency": 2.82521,
        "cache queues": {
          "PQ_ACCESS": 0,
          "PQ_FULL": 0,
          "PQ_TO_CACHE": 0,
          "PQ_MERGED": 0,
          "RQ_ACCESS": 3007,
          "RQ_MERGED": 0,
          "RQ_FULL": 0,
          "WQ_ACCESS": 0,
          "WQ_MERGED": 0,
          "WQ_FULL": 0
        }
      },
      "cpu0_DTLB": {
        "LOAD": {
          "hit":16378144,
          "miss":1085200
        },
        "RFO": {
          "hit":0,
          "miss":0
        },
        "PREFETCH": {
          "hit":0,
          "miss":0
        },
        "WRITE": {
          "hit":0,
          "miss":0
        },
        "TRANSLATION": {
          "hit":0,
          "miss":0
        },
        "mshr full": 4186,
        "prefetch requested": 0,
        "prefetch issued": 0,
        "prefetch filled": 0,
        "prefetch useful": 0,
        "prefetch useless": 0,
        "prefetch late": 0,
        "pf_useful_at_l2_from_l1":          0,
        "pf_late_at_l2_from_l1":          0,
        "pf_useless_at_l2_from_l1":          0,
        "pf_at_l2_to_l1":          0,
        "pf_fill_this_level":          0,
        "miss latency": 0.269693,
        "cache queues": {
          "PQ_ACCESS": 0,
          "PQ_FULL": 0,
          "PQ_TO_CACHE": 0,
          "PQ_MERGED": 0,
          "RQ_ACCESS": 18821400,
          "RQ_MERGED": 0,
          "RQ_FULL": 1358056,
          "WQ_ACCESS": 0,
          "WQ_MERGED": 0,
          "WQ_FULL": 0
        }
      },
      "cpu0_STLB": {
        "LOAD": {
          "hit":146160,
          "miss":56735
        },
        "RFO": {
          "hit":0,
          "miss":0
        },
        "PREFETCH": {
          "hit":0,
          "miss":0
        },
        "WRITE": {
          "hit":0,
          "miss":0
        },
        "TRANSLATION": {
          "hit":0,
          "miss":0
        },
        "mshr full": 0,
        "prefetch requested": 0,
        "prefetch issued": 0,
        "prefetch filled": 0,
        "prefetch useful": 0,
        "prefetch useless": 0,
        "prefetch late": 0,
        "pf_useful_at_l2_from_l1":          0,
        "pf_late_at_l2_from_l1":          0,
        "pf_useless_at_l2_from_l1":          0,
        "pf_at_l2_to_l1":          0,
        "pf_fill_this_level":          0,
        "miss latency": 3.31659,
        "cache queues": {
          "PQ_ACCESS": 0,
          "PQ_FULL": 0,
          "PQ_TO_CACHE": 0,
          "PQ_MERGED": 0,
          "RQ_ACCESS": 202895,
          "RQ_MERGED": 0,
          "RQ_FULL": 0,
          "WQ_ACCESS": 0,
          "WQ_MERGED": 0,
          "WQ_FULL": 0
        }
      },
      "cpu0_L1D": {
        "LOAD": {
          "hit":5154971,
          "miss":9298237
        },
        "RFO": {
          "hit":0,
          "miss":0
        },
        "PREFETCH": {
          "hit":5524211,
          "miss":1964896
        },
        "WRITE": {
          "hit":3456336,
          "miss":152076
        },
        "TRANSLATION": {
          "hit":27987,
          "miss":29266
        },
        "mshr full": 4558697,
        "prefetch requested": 11167392,
        "prefetch issued": 11167392,
        "prefetch filled": 736415,
        "prefetch useful": 757548,
        "prefetch useless": 191934,
        "prefetch late": 213187,
        "pf_useful_at_l2_from_l1":          0,
        "pf_late_at_l2_from_l1":          0,
        "pf_useless_at_l2_from_l1":          0,
        "pf_at_l2_to_l1":        568,
        "pf_fill_this_level":     732468,
        "miss latency": 1.75125,
        "cache queues": {
          "PQ_ACCESS": 11167392,
          "PQ_FULL": 0,
          "PQ_TO_CACHE": 11167392,
          "PQ_MERGED": 3678300,
          "RQ_ACCESS": 35520556,
          "RQ_MERGED": 34176,
          "RQ_FULL": 21033205,
          "WQ_ACCESS": 3614535,
          "WQ_MERGED": 0,
          "WQ_FULL": 6123
        }
      },
      "cpu0_L2C": {
        "LOAD": {
          "hit":143181,
          "miss":1578934
        },
        "RFO": {
          "hit":7748,
          "miss":18763
        },
        "PREFETCH": {
          "hit":65595,
          "miss":1023421
        },
        "WRITE": {
          "hit":974851,
          "miss":0
        },
        "TRANSLATION": {
          "hit":9653,
          "miss":19613
        },
        "mshr full": 62232,
        "prefetch requested": 0,
        "prefetch issued": 0,
        "prefetch filled": 971767,
        "prefetch useful": 0,
        "prefetch useless": 0,
        "prefetch late": 0,
        "pf_useful_at_l2_from_l1":      62737,
        "pf_late_at_l2_from_l1":      38636,
        "pf_useless_at_l2_from_l1":      31027,
        "pf_at_l2_to_l1":      48248,
        "pf_fill_this_level":     103668,
        "miss latency": 8.97097,
        "cache queues": {
          "PQ_ACCESS": 1109462,
          "PQ_FULL": 19840,
          "PQ_TO_CACHE": 1089622,
          "PQ_MERGED": 603,
          "RQ_ACCESS": 1777921,
          "RQ_MERGED": 0,
          "RQ_FULL": 0,
          "WQ_ACCESS": 974853,
          "WQ_MERGED": 0,
          "WQ_FULL": 0
        }
      },
      "LLC": {
        "LOAD": {
          "hit": [658002],
          "miss": [882283]
        },
        "RFO": {
          "hit": [7782],
          "miss": [10981]
        },
        "PREFETCH": {
          "hit": [134550],
          "miss": [875853]
        },
        "WRITE": {
          "hit": [887173],
          "miss": [0]
        },
        "TRANSLATION": {
          "hit": [14638],
          "miss": [4975]
        },
        "mshr full": 0,
        "prefetch requested": 0,
        "prefetch issued": 0,
        "prefetch filled": 875853,
        "prefetch useful": 0,
        "prefetch useless": 0,
        "prefetch late": 0,
        "pf_useful_at_l2_from_l1":          0,
        "pf_late_at_l2_from_l1":          0,
        "pf_useless_at_l2_from_l1":          0,
        "pf_at_l2_to_l1":       1500,
        "pf_fill_this_level":          0,
        "miss latency": 12.057,
        "cache queues": {
          "PQ_ACCESS": 1010403,
          "PQ_FULL": 0,
          "PQ_TO_CACHE": 1010403,
          "PQ_MERGED": 0,
          "RQ_ACCESS": 1578674,
          "RQ_MERGED": 0,
          "RQ_FULL": 0,
          "WQ_ACCESS": 887173,
          "WQ_MERGED": 0,
          "WQ_FULL": 0
        }
      },
      "DRAM": [
        {
          "RQ ROW_BUFFER_HIT": 253916,
          "RQ ROW_BUFFER_MISS": 189054,
          "PQ FULL": 0,
          "WQ ROW_BUFFER_HIT": 21087,
          "WQ ROW_BUFFER_MISS": 43302,
          "WQ FULL": 0,
          "AVG DBUS CONGESTED CYCLE": 3.68155
        },
        {
          "RQ ROW_BUFFER_HIT": 254118,
          "RQ ROW_BUFFER_MISS": 189098,
          "PQ FULL": 0,
          "WQ ROW_BUFFER_HIT": 21109,
          "WQ ROW_BUFFER_MISS": 43425,
          "WQ FULL": 0,
          "AVG DBUS CONGESTED CYCLE": 3.6914
        },
        {
          "RQ ROW_BUFFER_HIT": 252659,
          "RQ ROW_BUFFER_MISS": 190462,
          "PQ FULL": 0,
          "WQ ROW_BUFFER_HIT": 20550,
          "WQ ROW_BUFFER_MISS": 43764,
          "WQ FULL": 0,
          "AVG DBUS CONGESTED CYCLE": 3.67543
        },
        {
          "RQ ROW_BUFFER_HIT": 252703,
          "RQ ROW_BUFFER_MISS": 191340,
          "PQ FULL": 0,
          "WQ ROW_BUFFER_HIT": 20651,
          "WQ ROW_BUFFER_MISS": 43698,
          "WQ FULL": 0,
          "AVG DBUS CONGESTED CYCLE": 3.67561
        }
      ]

    }
  }
]
cpu0_ITLB
cpu0_DTLB
cpu0_STLB
Filter table begin
 ┌────────────────────┬────────────────────┬────────────────────┐
 | RegionNum          | Trigger            | PC                 |
 ├────────────────────┼────────────────────┼────────────────────┤
 | 0x0000000000001925 | 0x000000000000000e | 0x00000000004307a8 |
 ├────────────────────┼────────────────────┼────────────────────┤
 | 0x0000000000000dad | 0x0000000000000033 | 0x00000000004305fc |
 ├────────────────────┼────────────────────┼────────────────────┤
 | 0x0000000000000ea8 | 0x0000000000000021 | 0x0000000000430614 |
 ├────────────────────┼────────────────────┼────────────────────┤
 | 0x0000000000000965 | 0x0000000000000007 | 0x0000000000430600 |
 ├────────────────────┼────────────────────┼────────────────────┤
 | 0x0000000000001ac7 | 0x0000000000000001 | 0xffff000008088e78 |
 ├────────────────────┼────────────────────┼────────────────────┤
 | 0x0000000000000547 | 0x0000000000000002 | 0x00000000004306f8 |
 ├────────────────────┼────────────────────┼────────────────────┤
 | 0x0000000000001924 | 0x000000000000000e | 0x000000000043079c |
 ├────────────────────┼────────────────────┼────────────────────┤
 | 0x0000000000001ac6 | 0x000000000000003c | 0xffff000008088e70 |
 ├────────────────────┼────────────────────┼────────────────────┤
 | 0x0000000000000d4b | 0x000000000000001c | 0x0000000000430614 |
 ├────────────────────┼────────────────────┼────────────────────┤
 | 0x0000000000001af0 | 0x000000000000003a | 0xffff00000811aa8c |
 ├────────────────────┼────────────────────┼────────────────────┤
 | 0x0000000000000db7 | 0x0000000000000021 | 0x00000000004305fc |
 ├────────────────────┼────────────────────┼────────────────────┤
 | 0x0000000000000f02 | 0x000000000000000f | 0x00000000004307c8 |
 ├────────────────────┼────────────────────┼────────────────────┤
 | 0x0000000000001aa3 | 0x000000000000002d | 0xffff00000810f694 |
 ├────────────────────┼────────────────────┼────────────────────┤
 | 0x0000000000000919 | 0x000000000000002d | 0x0000000000430600 |
 ├────────────────────┼────────────────────┼────────────────────┤
 | 0x0000000000000eb8 | 0x0000000000000011 | 0x00000000004307c8 |
 ├────────────────────┼────────────────────┼────────────────────┤
 | 0x0000000000000e7b | 0x0000000000000005 | 0x0000000000430614 |
 ├────────────────────┼────────────────────┼────────────────────┤
 | 0x0000000000000ae0 | 0x0000000000000019 | 0x0000000000430614 |
 ├────────────────────┼────────────────────┼────────────────────┤
 | 0x0000000000000fbc | 0x0000000000000012 | 0x00000000004307c8 |
 ├────────────────────┼────────────────────┼────────────────────┤
 | 0x0000000000001a9f | 0x0000000000000015 | 0xffff000008108224 |
 ├────────────────────┼────────────────────┼────────────────────┤
 | 0x0000000000000cc7 | 0x000000000000000d | 0x0000000000430614 |
 ├────────────────────┼────────────────────┼────────────────────┤
 | 0x0000000000001aa8 | 0x0000000000000034 | 0xffff00000810823c |
 ├────────────────────┼────────────────────┼────────────────────┤
 | 0x0000000000001acd | 0x0000000000000000 | 0xffff0000080e92cc |
 ├────────────────────┼────────────────────┼────────────────────┤
 | 0x0000000000000918 | 0x000000000000001b | 0x0000000000430600 |
 ├────────────────────┼────────────────────┼────────────────────┤
 | 0x00000000000008ba | 0x0000000000000000 | 0x000000000043590c |
 ├────────────────────┼────────────────────┼────────────────────┤
 | 0x00000000000016cb | 0x0000000000000007 | 0x000000000043079c |
 ├────────────────────┼────────────────────┼────────────────────┤
 | 0x000000000000057b | 0x0000000000000029 | 0x00000000004306f8 |
 ├────────────────────┼────────────────────┼────────────────────┤
 | 0x00000000000016cc | 0x0000000000000007 | 0x00000000004307a8 |
 ├────────────────────┼────────────────────┼────────────────────┤
 | 0x0000000000001921 | 0x0000000000000005 | 0x000000000043079c |
 ├────────────────────┼────────────────────┼────────────────────┤
 | 0x000000000000091f | 0x000000000000000b | 0x0000000000430600 |
 ├────────────────────┼────────────────────┼────────────────────┤
 | 0x0000000000001a99 | 0x000000000000000e | 0xffff0000080815d0 |
 ├────────────────────┼────────────────────┼────────────────────┤
 | 0x0000000000001aee | 0x0000000000000028 | 0xffff0000080c2ea4 |
 ├────────────────────┼────────────────────┼────────────────────┤
 | 0x0000000000000781 | 0x000000000000002d | 0x00000000004306f8 |
 ├────────────────────┼────────────────────┼────────────────────┤
 | 0x0000000000001aae | 0x0000000000000004 | 0xffff00000810ce78 |
 ├────────────────────┼────────────────────┼────────────────────┤
 | 0x0000000000001aef | 0x0000000000000006 | 0xffff0000080c2ad8 |
 ├────────────────────┼────────────────────┼────────────────────┤
 | 0x0000000000000933 | 0x0000000000000029 | 0x0000000000430600 |
 ├────────────────────┼────────────────────┼────────────────────┤
 | 0x0000000000000b16 | 0x000000000000002a | 0x0000000000430614 |
 ├────────────────────┼────────────────────┼────────────────────┤
 | 0x0000000000000bd5 | 0x0000000000000037 | 0x0000000000430614 |
 ├────────────────────┼────────────────────┼────────────────────┤
 | 0x00000000000007d3 | 0x000000000000002b | 0x000000000042e3f4 |
 ├────────────────────┼────────────────────┼────────────────────┤
 | 0x0000000000000ebf | 0x000000000000000b | 0x00000000004307c8 |
 ├────────────────────┼────────────────────┼────────────────────┤
 | 0x0000000000001a9b | 0x0000000000000000 | 0xffff000008082c4c |
 ├────────────────────┼────────────────────┼────────────────────┤
 | 0x0000000000000d20 | 0x000000000000003f | 0x0000000000430624 |
 ├────────────────────┼────────────────────┼────────────────────┤
 | 0x0000000000001ada | 0x000000000000003e | 0xffff00000812a158 |
 ├────────────────────┼────────────────────┼────────────────────┤
 | 0x00000000000006aa | 0x0000000000000007 | 0x00000000004306f8 |
 ├────────────────────┼────────────────────┼────────────────────┤
 | 0x000000000000095c | 0x0000000000000000 | 0x0000000000430600 |
 ├────────────────────┼────────────────────┼────────────────────┤
 | 0x0000000000000b31 | 0x0000000000000006 | 0x0000000000430614 |
 ├────────────────────┼────────────────────┼────────────────────┤
 | 0x0000000000001a92 | 0x0000000000000002 | 0xffff000008082c8c |
 ├────────────────────┼────────────────────┼────────────────────┤
 | 0x0000000000000ba9 | 0x000000000000002d | 0x00000000004305fc |
 ├────────────────────┼────────────────────┼────────────────────┤
 | 0x0000000000001922 | 0x0000000000000005 | 0x00000000004307a8 |
 ├────────────────────┼────────────────────┼────────────────────┤
 | 0x000000000000077e | 0x000000000000001b | 0x00000000004306f8 |
 ├────────────────────┼────────────────────┼────────────────────┤
 | 0x0000000000001ad2 | 0x000000000000000a | 0xffff0000080c2f44 |
 ├────────────────────┼────────────────────┼────────────────────┤
 | 0x000000000000072d | 0x000000000000000b | 0x00000000004306f8 |
 ├────────────────────┼────────────────────┼────────────────────┤
 | 0x0000000000001ae4 | 0x0000000000000000 | 0xffff0000080ea0a0 |
 └────────────────────┴────────────────────┴────────────────────┘
Filter table end
Accumulation table begin
 ┌────────────────────┬────────────────────┬────────────────────┬────────────────────┬──────────────────────────────────────────────────────────────────────────────────────────────────────────────────────────────────┬─────────────────────────────────────────────────────────────────────────────────────────────────────────────────────────────────────────────────────────────────────────────────────────┐
 | RegionNum          | Trigger            | Second             | PC                 | Pattern                                                                                                                          | Order                                                                                                                                                                                   |
 ├────────────────────┼────────────────────┼────────────────────┼────────────────────┼──────────────────────────────────────────────────────────────────────────────────────────────────────────────────────────────────┼─────────────────────────────────────────────────────────────────────────────────────────────────────────────────────────────────────────────────────────────────────────────────────────┤
 | 0x0000000000001c15 | 0x0000000000000000 | 0x0000000000000001 | 0x000000000043079c | 1 1 1 1 1 1 1 1 1 1 1 1 1 1 1 1 1 0 0 0 0 0 0 0 0 0 0 0 0 0 0 0 1 1 1 1 1 1 1 1 1 1 0 1 0 0 0 0 0 0 1 0 0 1 1 1 1 1 1 1 1 1 1 1  | 1 2 3 4 5 6 7 8 9 10 11 12 13 14 15 16 17 0 0 0 0 0 0 0 0 0 0 0 0 0 0 0 18 19 20 21 22 23 24 25 26 27 0 28 0 0 0 0 0 0 29 0 0 30 31 32 33 34 35 36 37 38 39 40                          |
 ├────────────────────┼────────────────────┼────────────────────┼────────────────────┼──────────────────────────────────────────────────────────────────────────────────────────────────────────────────────────────────┼─────────────────────────────────────────────────────────────────────────────────────────────────────────────────────────────────────────────────────────────────────────────────────────┤
 | 0x0000000000001bfc | 0x0000000000000000 | 0x0000000000000001 | 0x000000000043078c | 1 1 1 1 1 1 1 1 1 1 1 1 1 1 1 1 1 1 1 1 1 1 1 1 1 1 1 1 1 1 1 1 1 1 1 1 1 1 1 1 1 1 1 1 1 1 1 1 1 1 1 1 1 1 1 1 1 1 1 1 1 1 1 1  | 1 2 3 4 5 6 7 8 9 10 11 12 13 14 15 16 17 18 19 20 21 22 23 24 25 26 27 28 29 30 31 32 33 34 35 36 37 38 39 40 41 42 43 44 45 46 47 48 49 50 51 52 53 54 55 56 57 58 59 60 61 62 63 64  |
 ├────────────────────┼────────────────────┼────────────────────┼────────────────────┼──────────────────────────────────────────────────────────────────────────────────────────────────────────────────────────────────┼─────────────────────────────────────────────────────────────────────────────────────────────────────────────────────────────────────────────────────────────────────────────────────────┤
 | 0x0000000000001c1c | 0x0000000000000000 | 0x0000000000000001 | 0x00000000004307a8 | 1 1 1 1 1 1 1 1 0 1 1 0 0 0 0 0 0 1 0 0 1 1 1 1 1 1 1 1 1 0 0 0 0 0 0 0 0 0 0 0 0 0 0 0 0 0 0 0 1 1 1 1 1 1 1 1 0 0 1 1 1 1 1 1  | 1 2 3 4 5 6 7 8 0 9 10 0 0 0 0 0 0 11 0 0 12 13 14 15 16 17 18 19 20 0 0 0 0 0 0 0 0 0 0 0 0 0 0 0 0 0 0 0 21 22 23 24 25 26 27 28 0 0 29 30 31 32 33 34                                |
 ├────────────────────┼────────────────────┼────────────────────┼────────────────────┼──────────────────────────────────────────────────────────────────────────────────────────────────────────────────────────────────┼─────────────────────────────────────────────────────────────────────────────────────────────────────────────────────────────────────────────────────────────────────────────────────────┤
 | 0x0000000000001c07 | 0x0000000000000000 | 0x0000000000000001 | 0x00000000004307a8 | 1 1 1 0 0 0 0 0 0 0 0 0 0 1 1 1 1 0 0 0 0 0 0 0 0 1 0 0 0 0 0 0 0 0 0 0 0 0 1 1 0 0 0 0 0 0 0 1 1 1 1 1 1 1 1 1 1 1 1 0 0 0 0 0  | 1 2 3 0 0 0 0 0 0 0 0 0 0 4 5 6 7 0 0 0 0 0 0 0 0 8 0 0 0 0 0 0 0 0 0 0 0 0 9 10 0 0 0 0 0 0 0 11 12 13 14 15 16 17 18 19 20 21 22 0 0 0 0 0                                            |
 ├────────────────────┼────────────────────┼────────────────────┼────────────────────┼──────────────────────────────────────────────────────────────────────────────────────────────────────────────────────────────────┼─────────────────────────────────────────────────────────────────────────────────────────────────────────────────────────────────────────────────────────────────────────────────────────┤
 | 0x0000000000001c23 | 0x0000000000000000 | 0x0000000000000001 | 0x000000000043078c | 1 1 1 1 1 1 1 1 1 1 1 1 1 1 1 1 1 1 1 1 1 1 1 1 1 1 1 1 1 1 1 1 1 1 1 1 1 1 1 1 1 1 1 1 1 1 1 1 1 1 1 1 1 1 1 1 1 1 1 1 1 1 1 1  | 1 2 3 4 5 6 7 8 9 10 11 12 13 14 15 16 17 18 19 20 21 22 23 24 25 26 27 28 29 30 31 32 33 34 35 36 37 38 39 40 41 42 43 44 45 46 47 48 49 50 51 52 53 54 55 56 57 58 59 60 61 62 63 64  |
 ├────────────────────┼────────────────────┼────────────────────┼────────────────────┼──────────────────────────────────────────────────────────────────────────────────────────────────────────────────────────────────┼─────────────────────────────────────────────────────────────────────────────────────────────────────────────────────────────────────────────────────────────────────────────────────────┤
 | 0x0000000000001c31 | 0x0000000000000007 | 0x000000000000000c | 0x000000000043079c | 0 0 0 0 0 0 0 1 0 0 0 0 1 1 1 0 0 1 1 1 1 1 1 0 0 1 1 1 1 1 1 0 0 0 1 0 1 1 0 0 0 0 1 0 1 0 0 1 0 0 0 0 0 0 1 1 1 1 1 1 1 0 0 0  | 0 0 0 0 0 0 0 1 0 0 0 0 2 3 4 0 0 5 6 7 8 9 10 0 0 11 12 13 14 15 16 0 0 0 17 0 18 19 0 0 0 0 20 0 21 0 0 22 0 0 0 0 0 0 23 24 25 26 27 28 29 0 0 0                                     |
 ├────────────────────┼────────────────────┼────────────────────┼────────────────────┼──────────────────────────────────────────────────────────────────────────────────────────────────────────────────────────────────┼─────────────────────────────────────────────────────────────────────────────────────────────────────────────────────────────────────────────────────────────────────────────────────────┤
 | 0x0000000000001c2a | 0x0000000000000000 | 0x0000000000000001 | 0x000000000043079c | 1 1 1 1 1 1 0 1 1 1 0 1 0 0 1 1 1 0 1 0 1 1 1 1 1 0 1 0 1 0 1 0 1 1 1 0 1 0 0 1 0 0 1 1 1 0 0 1 1 1 1 0 1 0 1 1 1 0 1 1 1 1 0 1  | 1 2 3 4 5 6 0 7 8 9 0 10 0 0 11 12 13 0 14 0 15 16 17 18 19 0 20 0 21 0 22 0 23 24 25 0 26 0 0 27 0 0 28 29 30 0 0 31 32 33 34 0 35 0 36 37 38 0 39 40 41 42 0 43                       |
 ├────────────────────┼────────────────────┼────────────────────┼────────────────────┼──────────────────────────────────────────────────────────────────────────────────────────────────────────────────────────────────┼─────────────────────────────────────────────────────────────────────────────────────────────────────────────────────────────────────────────────────────────────────────────────────────┤
 | 0x0000000000001c0e | 0x0000000000000000 | 0x0000000000000001 | 0x000000000043078c | 1 1 1 1 1 1 1 1 1 1 1 1 1 1 1 1 1 1 1 1 1 1 1 1 1 1 1 1 1 1 1 1 1 1 1 1 1 1 1 1 1 1 1 1 1 1 1 1 1 1 1 1 1 1 1 1 1 1 1 1 1 1 1 1  | 1 2 3 4 5 6 7 8 9 10 11 12 13 14 15 16 17 18 19 20 21 22 23 24 25 26 27 28 29 30 31 32 33 34 35 36 37 38 39 40 41 42 43 44 45 46 47 48 49 50 51 52 53 54 55 56 57 58 59 60 61 62 63 64  |
 ├────────────────────┼────────────────────┼────────────────────┼────────────────────┼──────────────────────────────────────────────────────────────────────────────────────────────────────────────────────────────────┼─────────────────────────────────────────────────────────────────────────────────────────────────────────────────────────────────────────────────────────────────────────────────────────┤
 | 0x0000000000001c30 | 0x0000000000000007 | 0x000000000000000c | 0x00000000004307a8 | 0 0 0 0 0 0 0 1 0 0 0 0 1 1 1 0 0 1 1 1 1 1 1 0 0 1 1 1 1 1 1 0 0 0 1 0 1 1 0 0 0 0 1 0 1 0 0 1 0 0 0 0 0 0 1 1 1 1 1 1 1 0 0 0  | 0 0 0 0 0 0 0 1 0 0 0 0 2 3 4 0 0 5 6 7 8 9 10 0 0 11 12 13 14 15 16 0 0 0 17 0 18 19 0 0 0 0 20 0 21 0 0 22 0 0 0 0 0 0 23 24 25 26 27 28 29 0 0 0                                     |
 ├────────────────────┼────────────────────┼────────────────────┼────────────────────┼──────────────────────────────────────────────────────────────────────────────────────────────────────────────────────────────────┼─────────────────────────────────────────────────────────────────────────────────────────────────────────────────────────────────────────────────────────────────────────────────────────┤
 | 0x0000000000001bfd | 0x0000000000000000 | 0x0000000000000001 | 0x000000000043079c | 1 1 1 1 1 1 1 1 1 1 0 1 0 1 0 0 0 0 0 0 1 1 1 1 0 0 1 1 1 1 1 1 1 1 1 0 0 0 0 0 0 0 0 0 0 0 0 0 0 0 0 0 0 0 0 0 0 0 0 1 1 1 1 1  | 1 2 3 4 5 6 7 8 9 10 0 11 0 12 0 0 0 0 0 0 13 14 15 16 0 0 17 18 19 20 21 22 23 24 25 0 0 0 0 0 0 0 0 0 0 0 0 0 0 0 0 0 0 0 0 0 0 0 0 26 27 28 29 30                                    |
 ├────────────────────┼────────────────────┼────────────────────┼────────────────────┼──────────────────────────────────────────────────────────────────────────────────────────────────────────────────────────────────┼─────────────────────────────────────────────────────────────────────────────────────────────────────────────────────────────────────────────────────────────────────────────────────────┤
 | 0x0000000000001c22 | 0x0000000000000000 | 0x0000000000000001 | 0x00000000004307a8 | 1 1 0 1 0 1 1 1 0 0 0 1 1 1 1 1 0 1 0 1 1 0 0 1 1 0 1 1 1 1 0 1 1 1 1 1 1 1 1 1 1 1 0 1 1 1 1 1 0 0 0 0 0 1 1 1 0 1 0 0 0 0 1 1  | 1 2 0 3 0 4 5 6 0 0 0 7 8 9 10 11 0 12 0 13 14 0 0 15 16 0 17 18 19 20 0 21 22 23 24 25 26 27 28 29 30 31 0 32 33 34 35 36 0 0 0 0 0 37 38 39 0 40 0 0 0 0 41 42                        |
 ├────────────────────┼────────────────────┼────────────────────┼────────────────────┼──────────────────────────────────────────────────────────────────────────────────────────────────────────────────────────────────┼─────────────────────────────────────────────────────────────────────────────────────────────────────────────────────────────────────────────────────────────────────────────────────────┤
 | 0x0000000000001c0f | 0x0000000000000004 | 0x0000000000000005 | 0x000000000043079c | 0 0 0 0 1 1 1 0 0 0 0 0 0 0 1 0 0 0 0 1 1 1 0 1 1 0 1 1 0 0 0 1 1 1 0 0 0 1 1 0 0 0 1 1 1 1 0 1 0 1 1 1 0 0 1 0 0 1 1 1 0 1 1 0  | 0 0 0 0 1 2 3 0 0 0 0 0 0 0 4 0 0 0 0 5 6 7 0 8 9 0 10 11 0 0 0 12 13 14 0 0 0 15 16 0 0 0 17 18 19 20 0 21 0 22 23 24 0 0 25 0 0 26 27 28 0 29 30 0                                    |
 ├────────────────────┼────────────────────┼────────────────────┼────────────────────┼──────────────────────────────────────────────────────────────────────────────────────────────────────────────────────────────────┼─────────────────────────────────────────────────────────────────────────────────────────────────────────────────────────────────────────────────────────────────────────────────────────┤
 | 0x0000000000001c14 | 0x0000000000000000 | 0x0000000000000001 | 0x000000000043078c | 1 1 1 1 1 1 1 1 1 1 1 1 1 1 1 1 1 1 1 1 1 1 1 1 1 1 1 1 1 1 1 1 1 1 1 1 1 1 1 1 1 1 1 1 1 1 1 1 1 1 1 1 1 1 1 1 1 1 1 1 1 1 1 1  | 1 2 3 4 5 6 7 8 9 10 11 12 13 14 15 16 17 18 19 20 21 22 23 24 25 26 27 28 29 30 31 32 33 34 35 36 37 38 39 40 41 42 43 44 45 46 47 48 49 50 51 52 53 54 55 56 57 58 59 60 61 62 63 64  |
 ├────────────────────┼────────────────────┼────────────────────┼────────────────────┼──────────────────────────────────────────────────────────────────────────────────────────────────────────────────────────────────┼─────────────────────────────────────────────────────────────────────────────────────────────────────────────────────────────────────────────────────────────────────────────────────────┤
 | 0x0000000000001c1d | 0x0000000000000000 | 0x0000000000000001 | 0x000000000043078c | 1 1 1 1 1 1 1 1 1 1 1 1 1 1 1 1 1 1 1 1 1 1 1 1 1 1 1 1 1 1 1 1 1 1 1 1 1 1 1 1 1 1 1 1 1 1 1 1 1 1 1 1 1 1 1 1 1 1 1 1 1 1 1 1  | 1 2 3 4 5 6 7 8 9 10 11 12 13 14 15 16 17 18 19 20 21 22 23 24 25 26 27 28 29 30 31 32 33 34 35 36 37 38 39 40 41 42 43 44 45 46 47 48 49 50 51 52 53 54 55 56 57 58 59 60 61 62 63 64  |
 ├────────────────────┼────────────────────┼────────────────────┼────────────────────┼──────────────────────────────────────────────────────────────────────────────────────────────────────────────────────────────────┼─────────────────────────────────────────────────────────────────────────────────────────────────────────────────────────────────────────────────────────────────────────────────────────┤
 | 0x0000000000001c06 | 0x0000000000000000 | 0x0000000000000001 | 0x000000000043079c | 1 1 1 0 0 0 0 0 0 0 0 0 0 1 1 1 1 0 0 0 0 0 0 0 0 1 0 0 0 0 0 0 0 0 0 0 0 0 1 1 0 0 0 0 0 0 0 1 1 1 1 1 1 1 1 1 1 1 1 0 0 0 0 0  | 1 2 3 0 0 0 0 0 0 0 0 0 0 4 5 6 7 0 0 0 0 0 0 0 0 8 0 0 0 0 0 0 0 0 0 0 0 0 9 10 0 0 0 0 0 0 0 11 12 13 14 15 16 17 18 19 20 21 22 0 0 0 0 0                                            |
 ├────────────────────┼────────────────────┼────────────────────┼────────────────────┼──────────────────────────────────────────────────────────────────────────────────────────────────────────────────────────────────┼─────────────────────────────────────────────────────────────────────────────────────────────────────────────────────────────────────────────────────────────────────────────────────────┤
 | 0x0000000000001c2b | 0x0000000000000000 | 0x0000000000000001 | 0x00000000004307a8 | 1 1 1 1 1 1 0 1 1 1 0 1 0 0 1 1 1 0 1 0 1 1 1 1 1 0 1 0 1 0 1 0 1 1 1 0 1 0 0 1 0 0 1 1 1 0 0 1 1 1 1 0 1 0 1 1 1 0 1 1 1 1 0 1  | 1 2 3 4 5 6 0 7 8 9 0 10 0 0 11 12 13 0 14 0 15 16 17 18 19 0 20 0 21 0 22 0 23 24 25 0 26 0 0 27 0 0 28 29 30 0 0 31 32 33 34 0 35 0 36 37 38 0 39 40 41 42 0 43                       |
 ├────────────────────┼────────────────────┼────────────────────┼────────────────────┼──────────────────────────────────────────────────────────────────────────────────────────────────────────────────────────────────┼─────────────────────────────────────────────────────────────────────────────────────────────────────────────────────────────────────────────────────────────────────────────────────────┤
 | 0x0000000000001c33 | 0x0000000000000005 | 0x0000000000000015 | 0x00000000004307a8 | 0 0 0 0 0 1 0 0 0 0 0 0 0 0 0 0 0 0 0 0 0 1 1 0 0 0 0 0 0 0 0 1 0 0 0 0 0 0 0 0 0 0 0 1 0 0 0 0 1 1 0 0 0 0 0 0 0 0 1 0 0 0 0 1  | 0 0 0 0 0 1 0 0 0 0 0 0 0 0 0 0 0 0 0 0 0 2 3 0 0 0 0 0 0 0 0 4 0 0 0 0 0 0 0 0 0 0 0 5 0 0 0 0 6 7 0 0 0 0 0 0 0 0 8 0 0 0 0 9                                                         |
 ├────────────────────┼────────────────────┼────────────────────┼────────────────────┼──────────────────────────────────────────────────────────────────────────────────────────────────────────────────────────────────┼─────────────────────────────────────────────────────────────────────────────────────────────────────────────────────────────────────────────────────────────────────────────────────────┤
 | 0x0000000000001c1e | 0x0000000000000000 | 0x0000000000000001 | 0x000000000043079c | 1 1 0 0 0 0 1 1 0 0 0 0 0 0 0 1 1 1 1 1 1 1 1 1 1 0 0 1 1 1 1 1 1 1 1 1 1 1 0 1 0 1 1 0 0 1 1 0 1 1 1 1 0 1 1 0 1 0 1 0 1 0 0 1  | 1 2 0 0 0 0 3 4 0 0 0 0 0 0 0 5 6 7 8 9 10 11 12 13 14 0 0 15 16 17 18 19 20 21 22 23 24 25 0 26 0 27 28 0 0 29 30 0 31 32 33 34 0 35 36 0 37 0 38 0 39 0 0 40                          |
 ├────────────────────┼────────────────────┼────────────────────┼────────────────────┼──────────────────────────────────────────────────────────────────────────────────────────────────────────────────────────────────┼─────────────────────────────────────────────────────────────────────────────────────────────────────────────────────────────────────────────────────────────────────────────────────────┤
 | 0x0000000000001c21 | 0x0000000000000000 | 0x0000000000000001 | 0x000000000043079c | 1 1 0 1 0 1 1 1 0 0 0 1 1 1 1 1 0 1 0 1 1 0 0 1 1 0 1 1 1 1 0 1 1 1 1 1 1 1 1 1 1 1 0 1 1 1 1 1 0 0 0 0 0 1 1 1 0 1 0 0 0 0 1 1  | 1 2 0 3 0 4 5 6 0 0 0 7 8 9 10 11 0 12 0 13 14 0 0 15 16 0 17 18 19 20 0 21 22 23 24 25 26 27 28 29 30 31 0 32 33 34 35 36 0 0 0 0 0 37 38 39 0 40 0 0 0 0 41 42                        |
 ├────────────────────┼────────────────────┼────────────────────┼────────────────────┼──────────────────────────────────────────────────────────────────────────────────────────────────────────────────────────────────┼─────────────────────────────────────────────────────────────────────────────────────────────────────────────────────────────────────────────────────────────────────────────────────────┤
 | 0x0000000000001c0c | 0x0000000000000000 | 0x0000000000000001 | 0x000000000043079c | 1 1 1 1 0 0 0 0 0 0 1 0 0 0 0 0 0 0 0 1 0 1 0 0 0 0 0 0 0 0 0 0 1 1 1 1 1 1 1 1 1 1 0 0 1 1 1 1 1 1 1 1 1 0 0 0 0 0 0 1 0 0 0 0  | 1 2 3 4 0 0 0 0 0 0 5 0 0 0 0 0 0 0 0 6 0 7 0 0 0 0 0 0 0 0 0 0 8 9 10 11 12 13 14 15 16 17 0 0 18 19 20 21 22 23 24 25 26 0 0 0 0 0 0 27 0 0 0 0                                       |
 ├────────────────────┼────────────────────┼────────────────────┼────────────────────┼──────────────────────────────────────────────────────────────────────────────────────────────────────────────────────────────────┼─────────────────────────────────────────────────────────────────────────────────────────────────────────────────────────────────────────────────────────────────────────────────────────┤
 | 0x0000000000001c05 | 0x0000000000000000 | 0x0000000000000001 | 0x000000000043078c | 1 1 1 1 1 1 1 1 1 1 1 1 1 1 1 1 1 1 1 1 1 1 1 1 1 1 1 1 1 1 1 1 1 1 1 1 1 1 1 1 1 1 1 1 1 1 1 1 1 1 1 1 1 1 1 1 1 1 1 1 1 1 1 1  | 1 2 3 4 5 6 7 8 9 10 11 12 13 14 15 16 17 18 19 20 21 22 23 24 25 26 27 28 29 30 31 32 33 34 35 36 37 38 39 40 41 42 43 44 45 46 47 48 49 50 51 52 53 54 55 56 57 58 59 60 61 62 63 64  |
 ├────────────────────┼────────────────────┼────────────────────┼────────────────────┼──────────────────────────────────────────────────────────────────────────────────────────────────────────────────────────────────┼─────────────────────────────────────────────────────────────────────────────────────────────────────────────────────────────────────────────────────────────────────────────────────────┤
 | 0x0000000000001bfe | 0x0000000000000000 | 0x0000000000000001 | 0x00000000004307a8 | 1 1 1 1 1 1 1 1 1 1 0 1 0 1 0 0 0 0 0 0 1 1 1 1 0 0 1 1 1 1 1 1 1 1 1 0 0 0 0 0 0 0 0 0 0 0 0 0 0 0 0 0 0 0 0 0 0 0 0 1 1 1 1 1  | 1 2 3 4 5 6 7 8 9 10 0 11 0 12 0 0 0 0 0 0 13 14 15 16 0 0 17 18 19 20 21 22 23 24 25 0 0 0 0 0 0 0 0 0 0 0 0 0 0 0 0 0 0 0 0 0 0 0 0 26 27 28 29 30                                    |
 ├────────────────────┼────────────────────┼────────────────────┼────────────────────┼──────────────────────────────────────────────────────────────────────────────────────────────────────────────────────────────────┼─────────────────────────────────────────────────────────────────────────────────────────────────────────────────────────────────────────────────────────────────────────────────────────┤
 | 0x0000000000001c28 | 0x0000000000000002 | 0x0000000000000003 | 0x000000000043079c | 0 0 1 1 1 1 1 1 1 1 1 1 1 1 1 0 1 1 1 1 0 1 1 1 1 0 0 1 1 0 0 1 1 1 1 1 1 1 1 1 0 1 1 1 1 1 1 1 1 1 1 1 1 1 1 1 1 1 0 1 1 1 1 1  | 0 0 1 2 3 4 5 6 7 8 9 10 11 12 13 0 14 15 16 17 0 18 19 20 21 0 0 22 23 0 0 24 25 26 27 28 29 30 31 32 0 33 34 35 36 37 38 39 40 41 42 43 44 45 46 47 48 49 0 50 51 52 53 54            |
 ├────────────────────┼────────────────────┼────────────────────┼────────────────────┼──────────────────────────────────────────────────────────────────────────────────────────────────────────────────────────────────┼─────────────────────────────────────────────────────────────────────────────────────────────────────────────────────────────────────────────────────────────────────────────────────────┤
 | 0x0000000000001c17 | 0x0000000000000000 | 0x0000000000000001 | 0x000000000043078c | 1 1 1 1 1 1 1 1 1 1 1 1 1 1 1 1 1 1 1 1 1 1 1 1 1 1 1 1 1 1 1 1 1 1 1 1 1 1 1 1 1 1 1 1 1 1 1 1 1 1 1 1 1 1 1 1 1 1 1 1 1 1 1 1  | 1 2 3 4 5 6 7 8 9 10 11 12 13 14 15 16 17 18 19 20 21 22 23 24 25 26 27 28 29 30 31 32 33 34 35 36 37 38 39 40 41 42 43 44 45 46 47 48 49 50 51 52 53 54 55 56 57 58 59 60 61 62 63 64  |
 ├────────────────────┼────────────────────┼────────────────────┼────────────────────┼──────────────────────────────────────────────────────────────────────────────────────────────────────────────────────────────────┼─────────────────────────────────────────────────────────────────────────────────────────────────────────────────────────────────────────────────────────────────────────────────────────┤
 | 0x0000000000001bff | 0x0000000000000000 | 0x0000000000000001 | 0x000000000043078c | 1 1 1 1 1 1 1 1 1 1 1 1 1 1 1 1 1 1 1 1 1 1 1 1 1 1 1 1 1 1 1 1 1 1 1 1 1 1 1 1 1 1 1 1 1 1 1 1 1 1 1 1 1 1 1 1 1 1 1 1 1 1 1 1  | 1 2 3 4 5 6 7 8 9 10 11 12 13 14 15 16 17 18 19 20 21 22 23 24 25 26 27 28 29 30 31 32 33 34 35 36 37 38 39 40 41 42 43 44 45 46 47 48 49 50 51 52 53 54 55 56 57 58 59 60 61 62 63 64  |
 ├────────────────────┼────────────────────┼────────────────────┼────────────────────┼──────────────────────────────────────────────────────────────────────────────────────────────────────────────────────────────────┼─────────────────────────────────────────────────────────────────────────────────────────────────────────────────────────────────────────────────────────────────────────────────────────┤
 | 0x0000000000001c1f | 0x0000000000000000 | 0x0000000000000001 | 0x00000000004307a8 | 1 1 0 0 0 0 1 1 0 0 0 0 0 0 0 1 1 1 1 1 1 1 1 1 1 0 0 1 1 1 1 1 1 1 1 1 1 1 0 1 0 1 1 0 0 1 1 0 1 1 1 1 0 1 1 0 1 0 1 0 1 0 0 1  | 1 2 0 0 0 0 3 4 0 0 0 0 0 0 0 5 6 7 8 9 10 11 12 13 14 0 0 15 16 17 18 19 20 21 22 23 24 25 0 26 0 27 28 0 0 29 30 0 31 32 33 34 0 35 36 0 37 0 38 0 39 0 0 40                          |
 ├────────────────────┼────────────────────┼────────────────────┼────────────────────┼──────────────────────────────────────────────────────────────────────────────────────────────────────────────────────────────────┼─────────────────────────────────────────────────────────────────────────────────────────────────────────────────────────────────────────────────────────────────────────────────────────┤
 | 0x0000000000001c16 | 0x0000000000000000 | 0x0000000000000001 | 0x00000000004307a8 | 1 1 1 1 1 1 1 1 1 1 1 1 1 1 1 1 1 0 0 0 0 0 0 0 0 0 0 0 0 0 0 0 1 1 1 1 1 1 1 1 1 1 0 1 0 0 0 0 0 0 1 0 0 1 1 1 1 1 1 1 1 1 1 1  | 1 2 3 4 5 6 7 8 9 10 11 12 13 14 15 16 17 0 0 0 0 0 0 0 0 0 0 0 0 0 0 0 18 19 20 21 22 23 24 25 26 27 0 28 0 0 0 0 0 0 29 0 0 30 31 32 33 34 35 36 37 38 39 40                          |
 ├────────────────────┼────────────────────┼────────────────────┼────────────────────┼──────────────────────────────────────────────────────────────────────────────────────────────────────────────────────────────────┼─────────────────────────────────────────────────────────────────────────────────────────────────────────────────────────────────────────────────────────────────────────────────────────┤
 | 0x0000000000001c20 | 0x0000000000000000 | 0x0000000000000001 | 0x000000000043078c | 1 1 1 1 1 1 1 1 1 1 1 1 1 1 1 1 1 1 1 1 1 1 1 1 1 1 1 1 1 1 1 1 1 1 1 1 1 1 1 1 1 1 1 1 1 1 1 1 1 1 1 1 1 1 1 1 1 1 1 1 1 1 1 1  | 1 2 3 4 5 6 7 8 9 10 11 12 13 14 15 16 17 18 19 20 21 22 23 24 25 26 27 28 29 30 31 32 33 34 35 36 37 38 39 40 41 42 43 44 45 46 47 48 49 50 51 52 53 54 55 56 57 58 59 60 61 62 63 64  |
 ├────────────────────┼────────────────────┼────────────────────┼────────────────────┼──────────────────────────────────────────────────────────────────────────────────────────────────────────────────────────────────┼─────────────────────────────────────────────────────────────────────────────────────────────────────────────────────────────────────────────────────────────────────────────────────────┤
 | 0x0000000000001c04 | 0x0000000000000001 | 0x000000000000000a | 0x000000000043079c | 0 1 0 0 0 0 0 0 0 0 1 1 0 1 1 0 0 0 0 0 0 1 1 1 1 1 1 1 1 1 0 0 0 0 0 0 1 0 0 0 0 0 0 0 0 1 0 1 0 0 0 0 0 0 0 0 0 1 1 1 1 1 1 1  | 0 1 0 0 0 0 0 0 0 0 2 3 0 4 5 0 0 0 0 0 0 6 7 8 9 10 11 12 13 14 0 0 0 0 0 0 15 0 0 0 0 0 0 0 0 16 0 17 0 0 0 0 0 0 0 0 0 18 19 20 21 22 23 24                                          |
 ├────────────────────┼────────────────────┼────────────────────┼────────────────────┼──────────────────────────────────────────────────────────────────────────────────────────────────────────────────────────────────┼─────────────────────────────────────────────────────────────────────────────────────────────────────────────────────────────────────────────────────────────────────────────────────────┤
 | 0x0000000000001c0d | 0x0000000000000000 | 0x0000000000000001 | 0x00000000004307a8 | 1 1 1 1 0 0 0 0 0 0 1 0 0 0 0 0 0 0 0 1 0 1 0 0 0 0 0 0 0 0 0 0 1 1 1 1 1 1 1 1 1 1 0 0 1 1 1 1 1 1 1 1 1 0 0 0 0 0 0 1 0 0 0 0  | 1 2 3 4 0 0 0 0 0 0 5 0 0 0 0 0 0 0 0 6 0 7 0 0 0 0 0 0 0 0 0 0 8 9 10 11 12 13 14 15 16 17 0 0 18 19 20 21 22 23 24 25 26 0 0 0 0 0 0 27 0 0 0 0                                       |
 ├────────────────────┼────────────────────┼────────────────────┼────────────────────┼──────────────────────────────────────────────────────────────────────────────────────────────────────────────────────────────────┼─────────────────────────────────────────────────────────────────────────────────────────────────────────────────────────────────────────────────────────────────────────────────────────┤
 | 0x0000000000001c29 | 0x0000000000000000 | 0x0000000000000001 | 0x000000000043078c | 1 1 1 1 1 1 1 1 1 1 1 1 1 1 1 1 1 1 1 1 1 1 1 1 1 1 1 1 1 1 1 1 1 1 1 1 1 1 1 1 1 1 1 1 1 1 1 1 1 1 1 1 1 1 1 1 1 1 1 1 1 1 1 1  | 1 2 3 4 5 6 7 8 9 10 11 12 13 14 15 16 17 18 19 20 21 22 23 24 25 26 27 28 29 30 31 32 33 34 35 36 37 38 39 40 41 42 43 44 45 46 47 48 49 50 51 52 53 54 55 56 57 58 59 60 61 62 63 64  |
 ├────────────────────┼────────────────────┼────────────────────┼────────────────────┼──────────────────────────────────────────────────────────────────────────────────────────────────────────────────────────────────┼─────────────────────────────────────────────────────────────────────────────────────────────────────────────────────────────────────────────────────────────────────────────────────────┤
 | 0x0000000000001c32 | 0x0000000000000000 | 0x0000000000000001 | 0x000000000043078c | 1 1 1 1 1 1 1 1 1 1 1 1 1 1 1 1 1 1 1 1 1 1 1 1 1 1 1 1 1 1 1 1 1 1 1 1 1 1 1 1 1 1 1 1 1 1 1 1 1 1 1 1 1 1 1 1 1 1 1 1 1 1 1 1  | 1 2 3 4 5 6 7 8 9 10 11 12 13 14 15 16 17 18 19 20 21 22 23 24 25 26 27 28 29 30 31 32 33 34 35 36 37 38 39 40 41 42 43 44 45 46 47 48 49 50 51 52 53 54 55 56 57 58 59 60 61 62 63 64  |
 ├────────────────────┼────────────────────┼────────────────────┼────────────────────┼──────────────────────────────────────────────────────────────────────────────────────────────────────────────────────────────────┼─────────────────────────────────────────────────────────────────────────────────────────────────────────────────────────────────────────────────────────────────────────────────────────┤
 | 0x0000000000001c0a | 0x0000000000000001 | 0x000000000000000a | 0x00000000004307a8 | 0 1 0 0 0 0 0 0 0 0 1 1 1 0 1 1 1 1 1 1 1 1 1 0 0 0 0 0 0 1 0 0 0 0 0 0 0 0 1 1 1 0 0 0 0 0 0 0 0 1 0 0 0 0 0 0 1 1 1 1 1 1 1 1  | 0 1 0 0 0 0 0 0 0 0 2 3 4 0 5 6 7 8 9 10 11 12 13 0 0 0 0 0 0 14 0 0 0 0 0 0 0 0 15 16 17 0 0 0 0 0 0 0 0 18 0 0 0 0 0 0 19 20 21 22 23 24 25 26                                        |
 ├────────────────────┼────────────────────┼────────────────────┼────────────────────┼──────────────────────────────────────────────────────────────────────────────────────────────────────────────────────────────────┼─────────────────────────────────────────────────────────────────────────────────────────────────────────────────────────────────────────────────────────────────────────────────────────┤
 | 0x0000000000001c2e | 0x0000000000000000 | 0x0000000000000003 | 0x00000000004307a8 | 1 0 0 1 1 1 0 0 1 0 1 0 1 1 0 1 1 0 0 1 1 0 1 1 1 1 0 0 1 1 1 1 0 1 1 1 1 1 0 1 1 1 1 1 0 0 0 0 0 0 0 1 1 0 0 0 0 0 0 0 0 1 1 0  | 1 0 0 2 3 4 0 0 5 0 6 0 7 8 0 9 10 0 0 11 12 0 13 14 15 16 0 0 17 18 19 20 0 21 22 23 24 25 0 26 27 28 29 30 0 0 0 0 0 0 0 31 32 0 0 0 0 0 0 0 0 33 34 0                                |
 ├────────────────────┼────────────────────┼────────────────────┼────────────────────┼──────────────────────────────────────────────────────────────────────────────────────────────────────────────────────────────────┼─────────────────────────────────────────────────────────────────────────────────────────────────────────────────────────────────────────────────────────────────────────────────────────┤
 | 0x0000000000001c03 | 0x0000000000000001 | 0x000000000000000a | 0x00000000004307a8 | 0 1 0 0 0 0 0 0 0 0 1 1 0 1 1 0 0 0 0 0 0 1 1 1 1 1 1 1 1 1 0 0 0 0 0 0 1 0 0 0 0 0 0 0 0 1 0 1 0 0 0 0 0 0 0 0 0 1 1 1 1 1 1 1  | 0 1 0 0 0 0 0 0 0 0 2 3 0 4 5 0 0 0 0 0 0 6 7 8 9 10 11 12 13 14 0 0 0 0 0 0 15 0 0 0 0 0 0 0 0 16 0 17 0 0 0 0 0 0 0 0 0 18 19 20 21 22 23 24                                          |
 ├────────────────────┼────────────────────┼────────────────────┼────────────────────┼──────────────────────────────────────────────────────────────────────────────────────────────────────────────────────────────────┼─────────────────────────────────────────────────────────────────────────────────────────────────────────────────────────────────────────────────────────────────────────────────────────┤
 | 0x0000000000001bf8 | 0x0000000000000000 | 0x0000000000000005 | 0x000000000043079c | 1 0 0 0 0 1 1 1 0 0 0 0 1 1 1 0 0 0 0 0 0 0 0 0 1 1 1 1 0 0 1 1 1 1 1 1 0 0 0 0 0 0 0 1 1 0 0 0 0 0 1 1 1 0 1 1 1 1 1 1 1 1 1 1  | 1 0 0 0 0 2 3 4 0 0 0 0 5 6 7 0 0 0 0 0 0 0 0 0 8 9 10 11 0 0 12 13 14 15 16 17 0 0 0 0 0 0 0 18 19 0 0 0 0 0 20 21 22 0 23 24 25 26 27 28 29 30 31 32                                  |
 ├────────────────────┼────────────────────┼────────────────────┼────────────────────┼──────────────────────────────────────────────────────────────────────────────────────────────────────────────────────────────────┼─────────────────────────────────────────────────────────────────────────────────────────────────────────────────────────────────────────────────────────────────────────────────────────┤
 | 0x0000000000001c18 | 0x0000000000000000 | 0x0000000000000001 | 0x000000000043079c | 1 1 1 1 1 1 0 0 0 0 1 1 0 0 0 0 0 0 1 1 1 1 1 1 1 1 1 1 1 1 1 1 1 1 1 1 1 1 1 1 1 1 1 1 1 1 1 1 1 0 0 0 0 0 0 0 0 0 0 0 0 0 0 1  | 1 2 3 4 5 6 0 0 0 0 7 8 0 0 0 0 0 0 9 10 11 12 13 14 15 16 17 18 19 20 21 22 23 24 25 26 27 28 29 30 31 32 33 34 35 36 37 38 39 0 0 0 0 0 0 0 0 0 0 0 0 0 0 40                          |
 ├────────────────────┼────────────────────┼────────────────────┼────────────────────┼──────────────────────────────────────────────────────────────────────────────────────────────────────────────────────────────────┼─────────────────────────────────────────────────────────────────────────────────────────────────────────────────────────────────────────────────────────────────────────────────────────┤
 | 0x0000000000001c35 | 0x0000000000000000 | 0x0000000000000001 | 0x000000000043078c | 1 1 1 1 1 1 1 1 1 1 1 1 1 1 1 1 1 1 1 1 1 1 1 1 1 1 1 1 0 0 0 0 0 0 0 0 0 0 0 0 0 0 0 0 0 0 0 0 0 0 0 0 0 0 0 0 0 0 0 0 0 0 0 0  | 1 2 3 4 5 6 7 8 9 10 11 12 13 14 15 16 17 18 19 20 21 22 23 24 25 26 27 28 0 0 0 0 0 0 0 0 0 0 0 0 0 0 0 0 0 0 0 0 0 0 0 0 0 0 0 0 0 0 0 0 0 0 0 0                                      |
 ├────────────────────┼────────────────────┼────────────────────┼────────────────────┼──────────────────────────────────────────────────────────────────────────────────────────────────────────────────────────────────┼─────────────────────────────────────────────────────────────────────────────────────────────────────────────────────────────────────────────────────────────────────────────────────────┤
 | 0x0000000000001c27 | 0x0000000000000003 | 0x0000000000000004 | 0x00000000004307a8 | 0 0 1 1 1 1 1 1 1 1 1 1 1 1 1 0 1 1 1 1 0 1 1 1 1 0 0 1 1 0 0 1 1 1 1 1 1 1 1 1 0 1 1 1 1 1 1 1 1 1 1 1 1 1 1 1 1 1 0 1 1 1 1 1  | 0 0 4 1 2 3 5 6 7 8 9 10 11 12 13 0 14 15 16 17 0 18 19 20 21 0 0 22 23 0 0 24 25 26 27 28 29 30 31 32 0 33 34 35 36 37 38 39 40 41 42 43 44 45 46 47 48 49 0 50 51 52 53 54            |
 ├────────────────────┼────────────────────┼────────────────────┼────────────────────┼──────────────────────────────────────────────────────────────────────────────────────────────────────────────────────────────────┼─────────────────────────────────────────────────────────────────────────────────────────────────────────────────────────────────────────────────────────────────────────────────────────┤
 | 0x0000000000001c11 | 0x0000000000000000 | 0x0000000000000001 | 0x000000000043078c | 1 1 1 1 1 1 1 1 1 1 1 1 1 1 1 1 1 1 1 1 1 1 1 1 1 1 1 1 1 1 1 1 1 1 1 1 1 1 1 1 1 1 1 1 1 1 1 1 1 1 1 1 1 1 1 1 1 1 1 1 1 1 1 1  | 1 2 3 4 5 6 7 8 9 10 11 12 13 14 15 16 17 18 19 20 21 22 23 24 25 26 27 28 29 30 31 32 33 34 35 36 37 38 39 40 41 42 43 44 45 46 47 48 49 50 51 52 53 54 55 56 57 58 59 60 61 62 63 64  |
 ├────────────────────┼────────────────────┼────────────────────┼────────────────────┼──────────────────────────────────────────────────────────────────────────────────────────────────────────────────────────────────┼─────────────────────────────────────────────────────────────────────────────────────────────────────────────────────────────────────────────────────────────────────────────────────────┤
 | 0x0000000000001bf9 | 0x0000000000000000 | 0x0000000000000001 | 0x000000000043078c | 1 1 1 1 1 1 1 1 1 1 1 1 1 1 1 1 1 1 1 1 1 1 1 1 1 1 1 1 1 1 1 1 1 1 1 1 1 1 1 1 1 1 1 1 1 1 1 1 1 1 1 1 1 1 1 1 1 1 1 1 1 1 1 1  | 1 2 3 4 5 6 7 8 9 10 11 12 13 14 15 16 17 18 19 20 21 22 23 24 25 26 27 28 29 30 31 32 33 34 35 36 37 38 39 40 41 42 43 44 45 46 47 48 49 50 51 52 53 54 55 56 57 58 59 60 61 62 63 64  |
 ├────────────────────┼────────────────────┼────────────────────┼────────────────────┼──────────────────────────────────────────────────────────────────────────────────────────────────────────────────────────────────┼─────────────────────────────────────────────────────────────────────────────────────────────────────────────────────────────────────────────────────────────────────────────────────────┤
 | 0x0000000000001c0b | 0x0000000000000000 | 0x0000000000000001 | 0x000000000043078c | 1 1 1 1 1 1 1 1 1 1 1 1 1 1 1 1 1 1 1 1 1 1 1 1 1 1 1 1 1 1 1 1 1 1 1 1 1 1 1 1 1 1 1 1 1 1 1 1 1 1 1 1 1 1 1 1 1 1 1 1 1 1 1 1  | 1 2 3 4 5 6 7 8 9 10 11 12 13 14 15 16 17 18 19 20 21 22 23 24 25 26 27 28 29 30 31 32 33 34 35 36 37 38 39 40 41 42 43 44 45 46 47 48 49 50 51 52 53 54 55 56 57 58 59 60 61 62 63 64  |
 ├────────────────────┼────────────────────┼────────────────────┼────────────────────┼──────────────────────────────────────────────────────────────────────────────────────────────────────────────────────────────────┼─────────────────────────────────────────────────────────────────────────────────────────────────────────────────────────────────────────────────────────────────────────────────────────┤
 | 0x0000000000001c26 | 0x0000000000000000 | 0x0000000000000001 | 0x000000000043078c | 1 1 1 1 1 1 1 1 1 1 1 1 1 1 1 1 1 1 1 1 1 1 1 1 1 1 1 1 1 1 1 1 1 1 1 1 1 1 1 1 1 1 1 1 1 1 1 1 1 1 1 1 1 1 1 1 1 1 1 1 1 1 1 1  | 1 2 3 4 5 6 7 8 9 10 11 12 13 14 15 16 17 18 19 20 21 22 23 24 25 26 27 28 29 30 31 32 33 34 35 36 37 38 39 40 41 42 43 44 45 46 47 48 49 50 51 52 53 54 55 56 57 58 59 60 61 62 63 64  |
 ├────────────────────┼────────────────────┼────────────────────┼────────────────────┼──────────────────────────────────────────────────────────────────────────────────────────────────────────────────────────────────┼─────────────────────────────────────────────────────────────────────────────────────────────────────────────────────────────────────────────────────────────────────────────────────────┤
 | 0x0000000000001c02 | 0x0000000000000000 | 0x0000000000000001 | 0x000000000043078c | 1 1 1 1 1 1 1 1 1 1 1 1 1 1 1 1 1 1 1 1 1 1 1 1 1 1 1 1 1 1 1 1 1 1 1 1 1 1 1 1 1 1 1 1 1 1 1 1 1 1 1 1 1 1 1 1 1 1 1 1 1 1 1 1  | 1 2 3 4 5 6 7 8 9 10 11 12 13 14 15 16 17 18 19 20 21 22 23 24 25 26 27 28 29 30 31 32 33 34 35 36 37 38 39 40 41 42 43 44 45 46 47 48 49 50 51 52 53 54 55 56 57 58 59 60 61 62 63 64  |
 ├────────────────────┼────────────────────┼────────────────────┼────────────────────┼──────────────────────────────────────────────────────────────────────────────────────────────────────────────────────────────────┼─────────────────────────────────────────────────────────────────────────────────────────────────────────────────────────────────────────────────────────────────────────────────────────┤
 | 0x0000000000001c10 | 0x0000000000000004 | 0x0000000000000005 | 0x00000000004307a8 | 0 0 0 0 1 1 1 0 0 0 0 0 0 0 1 0 0 0 0 1 1 1 0 1 1 0 1 1 0 0 0 1 1 1 0 0 0 1 1 0 0 0 1 1 1 1 0 1 0 1 1 1 0 0 1 0 0 1 1 1 0 1 1 0  | 0 0 0 0 1 2 3 0 0 0 0 0 0 0 4 0 0 0 0 5 6 7 0 8 9 0 10 11 0 0 0 12 13 14 0 0 0 15 16 0 0 0 17 18 19 20 0 21 0 22 23 24 0 0 25 0 0 26 27 28 0 29 30 0                                    |
 ├────────────────────┼────────────────────┼────────────────────┼────────────────────┼──────────────────────────────────────────────────────────────────────────────────────────────────────────────────────────────────┼─────────────────────────────────────────────────────────────────────────────────────────────────────────────────────────────────────────────────────────────────────────────────────────┤
 | 0x0000000000001c34 | 0x0000000000000005 | 0x0000000000000015 | 0x000000000043079c | 0 0 0 0 0 1 0 0 0 0 0 0 0 0 0 0 0 0 0 0 0 1 1 0 0 0 0 0 0 0 0 1 0 0 0 0 0 0 0 0 0 0 0 1 0 0 0 0 1 1 0 0 0 0 0 0 0 0 1 0 0 0 0 1  | 0 0 0 0 0 1 0 0 0 0 0 0 0 0 0 0 0 0 0 0 0 2 3 0 0 0 0 0 0 0 0 4 0 0 0 0 0 0 0 0 0 0 0 5 0 0 0 0 6 7 0 0 0 0 0 0 0 0 8 0 0 0 0 9                                                         |
 ├────────────────────┼────────────────────┼────────────────────┼────────────────────┼──────────────────────────────────────────────────────────────────────────────────────────────────────────────────────────────────┼─────────────────────────────────────────────────────────────────────────────────────────────────────────────────────────────────────────────────────────────────────────────────────────┤
 | 0x0000000000001c2f | 0x0000000000000000 | 0x0000000000000001 | 0x000000000043078c | 1 1 1 1 1 1 1 1 1 1 1 1 1 1 1 1 1 1 1 1 1 1 1 1 1 1 1 1 1 1 1 1 1 1 1 1 1 1 1 1 1 1 1 1 1 1 1 1 1 1 1 1 1 1 1 1 1 1 1 1 1 1 1 1  | 1 2 3 4 5 6 7 8 9 10 11 12 13 14 15 16 17 18 19 20 21 22 23 24 25 26 27 28 29 30 31 32 33 34 35 36 37 38 39 40 41 42 43 44 45 46 47 48 49 50 51 52 53 54 55 56 57 58 59 60 61 62 63 64  |
 ├────────────────────┼────────────────────┼────────────────────┼────────────────────┼──────────────────────────────────────────────────────────────────────────────────────────────────────────────────────────────────┼─────────────────────────────────────────────────────────────────────────────────────────────────────────────────────────────────────────────────────────────────────────────────────────┤
 | 0x0000000000001c19 | 0x0000000000000000 | 0x0000000000000001 | 0x00000000004307a8 | 1 1 1 1 1 1 0 0 0 0 1 1 0 0 0 0 0 0 1 1 1 1 1 1 1 1 1 1 1 1 1 1 1 1 1 1 1 1 1 1 1 1 1 1 1 1 1 1 1 0 0 0 0 0 0 0 0 0 0 0 0 0 0 1  | 1 2 3 4 5 6 0 0 0 0 7 8 0 0 0 0 0 0 9 10 11 12 13 14 15 16 17 18 19 20 21 22 23 24 25 26 27 28 29 30 31 32 33 34 35 36 37 38 39 0 0 0 0 0 0 0 0 0 0 0 0 0 0 40                          |
 ├────────────────────┼────────────────────┼────────────────────┼────────────────────┼──────────────────────────────────────────────────────────────────────────────────────────────────────────────────────────────────┼─────────────────────────────────────────────────────────────────────────────────────────────────────────────────────────────────────────────────────────────────────────────────────────┤
 | 0x0000000000001c37 | 0x0000000000000000 | 0x0000000000000009 | 0x00000000004307a8 | 1 0 0 0 0 0 0 0 0 1 1 1 0 0 1 1 1 1 1 0 0 0 0 1 0 0 0 0 0 0 0 0 0 0 0 0 0 0 0 0 0 0 0 0 0 0 0 0 0 0 0 0 0 0 0 0 0 0 0 0 0 0 0 0  | 1 0 0 0 0 0 0 0 0 2 3 4 0 0 5 6 7 8 9 0 0 0 0 10 0 0 0 0 0 0 0 0 0 0 0 0 0 0 0 0 0 0 0 0 0 0 0 0 0 0 0 0 0 0 0 0 0 0 0 0 0 0 0 0                                                        |
 ├────────────────────┼────────────────────┼────────────────────┼────────────────────┼──────────────────────────────────────────────────────────────────────────────────────────────────────────────────────────────────┼─────────────────────────────────────────────────────────────────────────────────────────────────────────────────────────────────────────────────────────────────────────────────────────┤
 | 0x0000000000001c1a | 0x0000000000000000 | 0x0000000000000001 | 0x000000000043078c | 1 1 1 1 1 1 1 1 1 1 1 1 1 1 1 1 1 1 1 1 1 1 1 1 1 1 1 1 1 1 1 1 1 1 1 1 1 1 1 1 1 1 1 1 1 1 1 1 1 1 1 1 1 1 1 1 1 1 1 1 1 1 1 1  | 1 2 3 4 5 6 7 8 9 10 11 12 13 14 15 16 17 18 19 20 21 22 23 24 25 26 27 28 29 30 31 32 33 34 35 36 37 38 39 40 41 42 43 44 45 46 47 48 49 50 51 52 53 54 55 56 57 58 59 60 61 62 63 64  |
 ├────────────────────┼────────────────────┼────────────────────┼────────────────────┼──────────────────────────────────────────────────────────────────────────────────────────────────────────────────────────────────┼─────────────────────────────────────────────────────────────────────────────────────────────────────────────────────────────────────────────────────────────────────────────────────────┤
 | 0x0000000000001c08 | 0x0000000000000000 | 0x0000000000000001 | 0x000000000043078c | 1 1 1 1 1 1 1 1 1 1 1 1 1 1 1 1 1 1 1 1 1 1 1 1 1 1 1 1 1 1 1 1 1 1 1 1 1 1 1 1 1 1 1 1 1 1 1 1 1 1 1 1 1 1 1 1 1 1 1 1 1 1 1 1  | 1 2 3 4 5 6 7 8 9 10 11 12 13 14 15 16 17 18 19 20 21 22 23 24 25 26 27 28 29 30 31 32 33 34 35 36 37 38 39 40 41 42 43 44 45 46 47 48 49 50 51 52 53 54 55 56 57 58 59 60 61 62 63 64  |
 ├────────────────────┼────────────────────┼────────────────────┼────────────────────┼──────────────────────────────────────────────────────────────────────────────────────────────────────────────────────────────────┼─────────────────────────────────────────────────────────────────────────────────────────────────────────────────────────────────────────────────────────────────────────────────────────┤
 | 0x0000000000001c2c | 0x0000000000000000 | 0x0000000000000001 | 0x000000000043078c | 1 1 1 1 1 1 1 1 1 1 1 1 1 1 1 1 1 1 1 1 1 1 1 1 1 1 1 1 1 1 1 1 1 1 1 1 1 1 1 1 1 1 1 1 1 1 1 1 1 1 1 1 1 1 1 1 1 1 1 1 1 1 1 1  | 1 2 3 4 5 6 7 8 9 10 11 12 13 14 15 16 17 18 19 20 21 22 23 24 25 26 27 28 29 30 31 32 33 34 35 36 37 38 39 40 41 42 43 44 45 46 47 48 49 50 51 52 53 54 55 56 57 58 59 60 61 62 63 64  |
 ├────────────────────┼────────────────────┼────────────────────┼────────────────────┼──────────────────────────────────────────────────────────────────────────────────────────────────────────────────────────────────┼─────────────────────────────────────────────────────────────────────────────────────────────────────────────────────────────────────────────────────────────────────────────────────────┤
 | 0x0000000000001c01 | 0x0000000000000000 | 0x0000000000000001 | 0x00000000004307a8 | 1 1 1 0 0 0 1 1 1 1 1 1 1 1 1 0 0 0 0 1 1 0 1 1 0 0 0 0 0 1 1 1 1 1 1 1 1 1 1 1 1 1 1 1 1 1 1 1 1 0 0 0 0 0 0 1 0 0 0 0 0 0 0 0  | 1 2 3 0 0 0 4 5 6 7 8 9 10 11 12 0 0 0 0 13 14 0 15 16 0 0 0 0 0 17 18 19 20 21 22 23 24 25 26 27 28 29 30 31 32 33 34 35 36 0 0 0 0 0 0 37 0 0 0 0 0 0 0 0                             |
 ├────────────────────┼────────────────────┼────────────────────┼────────────────────┼──────────────────────────────────────────────────────────────────────────────────────────────────────────────────────────────────┼─────────────────────────────────────────────────────────────────────────────────────────────────────────────────────────────────────────────────────────────────────────────────────────┤
 | 0x0000000000001bfa | 0x0000000000000000 | 0x0000000000000001 | 0x000000000043079c | 1 1 1 1 1 1 1 1 1 1 1 1 1 1 1 1 1 1 1 1 1 1 1 1 1 1 1 1 1 1 1 1 1 1 1 1 1 1 1 1 1 1 1 1 1 1 1 0 0 0 0 0 0 0 0 0 0 0 0 0 0 0 0 1  | 1 2 3 4 5 6 7 8 9 10 11 12 13 14 15 16 17 18 19 20 21 22 23 24 25 26 27 28 29 30 31 32 33 34 35 36 37 38 39 40 41 42 43 44 45 46 47 0 0 0 0 0 0 0 0 0 0 0 0 0 0 0 0 48                  |
 ├────────────────────┼────────────────────┼────────────────────┼────────────────────┼──────────────────────────────────────────────────────────────────────────────────────────────────────────────────────────────────┼─────────────────────────────────────────────────────────────────────────────────────────────────────────────────────────────────────────────────────────────────────────────────────────┤
 | 0x0000000000001c13 | 0x0000000000000000 | 0x0000000000000001 | 0x00000000004307a8 | 1 1 0 1 1 0 0 1 0 1 1 1 0 1 1 1 1 0 0 0 1 1 0 1 1 0 1 0 0 0 0 0 1 1 1 1 1 1 1 0 0 0 1 0 0 1 0 1 0 0 0 0 0 0 1 1 0 0 0 0 1 0 1 1  | 1 2 0 3 4 0 0 5 0 6 7 8 0 9 10 11 12 0 0 0 13 14 0 15 16 0 17 0 0 0 0 0 18 19 20 21 22 23 24 0 0 0 25 0 0 26 0 27 0 0 0 0 0 0 28 29 0 0 0 0 30 0 31 32                                  |
 ├────────────────────┼────────────────────┼────────────────────┼────────────────────┼──────────────────────────────────────────────────────────────────────────────────────────────────────────────────────────────────┼─────────────────────────────────────────────────────────────────────────────────────────────────────────────────────────────────────────────────────────────────────────────────────────┤
 | 0x0000000000001c25 | 0x0000000000000000 | 0x0000000000000005 | 0x00000000004307a8 | 1 0 0 0 0 1 1 1 0 0 0 0 0 1 1 0 1 0 1 1 0 0 0 0 1 1 1 0 0 1 0 0 1 1 1 0 1 1 1 1 1 0 1 1 1 1 0 1 1 1 0 1 1 1 0 0 0 1 1 1 1 1 0 0  | 1 0 0 0 0 2 3 4 0 0 0 0 0 5 6 0 7 0 8 9 0 0 0 0 10 11 12 0 0 13 0 0 14 15 16 0 17 18 19 20 21 0 22 23 24 25 0 26 27 28 0 29 30 31 0 0 0 32 33 34 35 36 0 0                              |
 ├────────────────────┼────────────────────┼────────────────────┼────────────────────┼──────────────────────────────────────────────────────────────────────────────────────────────────────────────────────────────────┼─────────────────────────────────────────────────────────────────────────────────────────────────────────────────────────────────────────────────────────────────────────────────────────┤
 | 0x0000000000001c00 | 0x0000000000000000 | 0x0000000000000001 | 0x000000000043079c | 1 1 1 0 0 0 1 1 1 1 1 1 1 1 1 0 0 0 0 1 1 0 1 1 0 0 0 0 0 1 1 1 1 1 1 1 1 1 1 1 1 1 1 1 1 1 1 1 1 0 0 0 0 0 0 1 0 0 0 0 0 0 0 0  | 1 2 3 0 0 0 4 5 6 7 8 9 10 11 12 0 0 0 0 13 14 0 15 16 0 0 0 0 0 17 18 19 20 21 22 23 24 25 26 27 28 29 30 31 32 33 34 35 36 0 0 0 0 0 0 37 0 0 0 0 0 0 0 0                             |
 ├────────────────────┼────────────────────┼────────────────────┼────────────────────┼──────────────────────────────────────────────────────────────────────────────────────────────────────────────────────────────────┼─────────────────────────────────────────────────────────────────────────────────────────────────────────────────────────────────────────────────────────────────────────────────────────┤
 | 0x0000000000001c1b | 0x0000000000000000 | 0x0000000000000001 | 0x000000000043079c | 1 1 1 1 1 1 1 1 0 1 1 0 0 0 0 0 0 1 0 0 1 1 1 1 1 1 1 1 1 0 0 0 0 0 0 0 0 0 0 0 0 0 0 0 0 0 0 0 1 1 1 1 1 1 1 1 0 0 1 1 1 1 1 1  | 1 2 3 4 5 6 7 8 0 9 10 0 0 0 0 0 0 11 0 0 12 13 14 15 16 17 18 19 20 0 0 0 0 0 0 0 0 0 0 0 0 0 0 0 0 0 0 0 21 22 23 24 25 26 27 28 0 0 29 30 31 32 33 34                                |
 ├────────────────────┼────────────────────┼────────────────────┼────────────────────┼──────────────────────────────────────────────────────────────────────────────────────────────────────────────────────────────────┼─────────────────────────────────────────────────────────────────────────────────────────────────────────────────────────────────────────────────────────────────────────────────────────┤
 | 0x0000000000001c24 | 0x0000000000000000 | 0x0000000000000005 | 0x000000000043079c | 1 0 0 0 0 1 1 1 0 0 0 0 0 1 1 0 1 0 1 1 0 0 0 0 1 1 1 0 0 1 0 0 1 1 1 0 1 1 1 1 1 0 1 1 1 1 0 1 1 1 0 1 1 1 0 0 0 1 1 1 1 1 0 0  | 1 0 0 0 0 2 3 4 0 0 0 0 0 5 6 0 7 0 8 9 0 0 0 0 10 11 12 0 0 13 0 0 14 15 16 0 17 18 19 20 21 0 22 23 24 25 0 26 27 28 0 29 30 31 0 0 0 32 33 34 35 36 0 0                              |
 ├────────────────────┼────────────────────┼────────────────────┼────────────────────┼──────────────────────────────────────────────────────────────────────────────────────────────────────────────────────────────────┼─────────────────────────────────────────────────────────────────────────────────────────────────────────────────────────────────────────────────────────────────────────────────────────┤
 | 0x0000000000001bfb | 0x0000000000000000 | 0x0000000000000001 | 0x00000000004307a8 | 1 1 1 1 1 1 1 1 1 1 1 1 1 1 1 1 1 1 1 1 1 1 1 1 1 1 1 1 1 1 1 1 1 1 1 1 1 1 1 1 1 1 1 1 1 1 1 0 0 0 0 0 0 0 0 0 0 0 0 0 0 0 0 1  | 1 2 3 4 5 6 7 8 9 10 11 12 13 14 15 16 17 18 19 20 21 22 23 24 25 26 27 28 29 30 31 32 33 34 35 36 37 38 39 40 41 42 43 44 45 46 47 0 0 0 0 0 0 0 0 0 0 0 0 0 0 0 0 48                  |
 ├────────────────────┼────────────────────┼────────────────────┼────────────────────┼──────────────────────────────────────────────────────────────────────────────────────────────────────────────────────────────────┼─────────────────────────────────────────────────────────────────────────────────────────────────────────────────────────────────────────────────────────────────────────────────────────┤
 | 0x0000000000001c2d | 0x0000000000000000 | 0x0000000000000003 | 0x000000000043079c | 1 0 0 1 1 1 0 0 1 0 1 0 1 1 0 1 1 0 0 1 1 0 1 1 1 1 0 0 1 1 1 1 0 1 1 1 1 1 0 1 1 1 1 1 0 0 0 0 0 0 0 1 1 0 0 0 0 0 0 0 0 1 1 0  | 1 0 0 2 3 4 0 0 5 0 6 0 7 8 0 9 10 0 0 11 12 0 13 14 15 16 0 0 17 18 19 20 0 21 22 23 24 25 0 26 27 28 29 30 0 0 0 0 0 0 0 31 32 0 0 0 0 0 0 0 0 33 34 0                                |
 ├────────────────────┼────────────────────┼────────────────────┼────────────────────┼──────────────────────────────────────────────────────────────────────────────────────────────────────────────────────────────────┼─────────────────────────────────────────────────────────────────────────────────────────────────────────────────────────────────────────────────────────────────────────────────────────┤
[...]
 | 0x0000000000000000 | 0x0000000000000005 | 0x0000000000000012 | 1           | 0 0 0 0 0 1 0 0 0 0 0 0 0 0 0 0 0 0 1 1 1 0 0 0 0 0 0 0 0 1 1 0 0 0 0 0 0 0 0 1 1 0 0 0 0 0 0 0 0 1 0 0 0 0 0 0 0 0 1 1 1 0 0 0  |
 ├────────────────────┼────────────────────┼────────────────────┼─────────────┼──────────────────────────────────────────────────────────────────────────────────────────────────────────────────────────────────┤
 | 0x0000000000000000 | 0x0000000000000009 | 0x000000000000000a | 1           | 0 0 0 0 0 0 0 0 0 1 1 0 0 0 0 0 0 0 1 1 0 0 0 0 0 0 0 0 0 0 0 0 0 1 0 0 0 0 0 0 0 0 0 0 1 1 1 0 0 0 0 0 0 0 0 1 1 0 0 0 0 0 0 0  |
 ├────────────────────┼────────────────────┼────────────────────┼─────────────┼──────────────────────────────────────────────────────────────────────────────────────────────────────────────────────────────────┤
 | 0x0000000000000000 | 0x0000000000000001 | 0x0000000000000002 | 0           | 0 1 1 0 0 0 0 0 0 0 0 1 0 0 0 0 0 0 0 0 1 1 0 0 0 1 1 1 1 1 0 0 0 0 0 0 0 0 1 1 0 0 0 0 1 1 1 1 1 0 0 0 0 0 0 0 0 1 1 0 0 0 0 0  |
 ├────────────────────┼────────────────────┼────────────────────┼─────────────┼──────────────────────────────────────────────────────────────────────────────────────────────────────────────────────────────────┤
 | 0x0000000000000001 | 0x0000000000000001 | 0x0000000000000002 | 0           | 0 1 1 0 0 0 0 0 0 0 0 1 0 0 0 0 0 0 0 0 1 1 0 0 0 1 1 1 1 1 0 0 0 0 0 0 0 0 1 1 0 0 0 0 1 1 1 1 1 0 0 0 0 0 0 0 0 1 1 0 0 0 0 0  |
 ├────────────────────┼────────────────────┼────────────────────┼─────────────┼──────────────────────────────────────────────────────────────────────────────────────────────────────────────────────────────────┤
 | 0x0000000000000009 | 0x0000000000000009 | 0x000000000000000a | 1           | 0 0 0 0 0 0 0 0 0 1 1 0 0 0 0 0 0 0 1 1 0 0 0 0 0 0 0 0 0 0 0 0 0 1 0 0 0 0 0 0 0 0 0 0 1 1 1 0 0 0 0 0 0 0 0 1 1 0 0 0 0 0 0 0  |
 ├────────────────────┼────────────────────┼────────────────────┼─────────────┼──────────────────────────────────────────────────────────────────────────────────────────────────────────────────────────────────┤
 | 0x0000000000000005 | 0x0000000000000005 | 0x000000000000000a | 1           | 0 0 0 0 0 1 0 0 0 0 1 0 0 0 0 0 0 0 0 0 0 0 0 0 0 0 1 1 0 0 0 0 0 0 0 0 0 0 0 0 0 1 1 1 1 1 1 0 0 0 0 0 0 0 0 1 0 0 0 0 0 0 0 1  |
 ├────────────────────┼────────────────────┼────────────────────┼─────────────┼──────────────────────────────────────────────────────────────────────────────────────────────────────────────────────────────────┤
 | 0x0000000000000000 | 0x0000000000000002 | 0x0000000000000013 | 1           | 0 0 1 0 0 0 0 0 0 0 0 0 0 0 0 0 0 0 0 1 0 1 1 1 1 1 0 0 0 0 1 0 0 0 0 0 0 0 0 0 0 1 1 1 1 1 1 1 1 1 1 1 1 0 0 0 0 0 0 0 1 0 0 0  |
 ├────────────────────┼────────────────────┼────────────────────┼─────────────┼──────────────────────────────────────────────────────────────────────────────────────────────────────────────────────────────────┤
 | 0x0000000000000000 | 0x0000000000000001 | 0x0000000000000003 | 2           | 0 1 0 1 1 1 1 1 1 1 1 1 1 1 1 1 1 1 1 1 1 1 1 1 1 1 1 1 1 1 1 1 1 1 1 1 1 1 1 1 1 1 1 1 1 1 1 1 1 1 1 1 1 1 1 1 1 1 1 1 1 1 1 1  |
 ├────────────────────┼────────────────────┼────────────────────┼─────────────┼──────────────────────────────────────────────────────────────────────────────────────────────────────────────────────────────────┤
 | 0x000000000000000a | 0x000000000000000a | 0x000000000000000b | 0           | 0 0 0 0 0 0 0 0 0 0 1 1 0 0 0 0 0 0 1 0 0 0 0 0 0 0 0 0 0 0 0 1 0 1 0 0 0 1 0 0 0 0 0 0 0 0 0 0 0 0 1 1 1 1 1 0 0 0 0 0 0 0 0 0  |
 ├────────────────────┼────────────────────┼────────────────────┼─────────────┼──────────────────────────────────────────────────────────────────────────────────────────────────────────────────────────────────┤
 | 0x0000000000000002 | 0x0000000000000002 | 0x0000000000000013 | 1           | 0 0 1 0 0 0 0 0 0 0 0 0 0 0 0 0 0 0 0 1 0 1 1 1 1 1 0 0 0 0 1 0 0 0 0 0 0 0 0 0 0 1 1 1 1 1 1 1 1 1 1 1 1 0 0 0 0 0 0 0 1 0 0 0  |
 ├────────────────────┼────────────────────┼────────────────────┼─────────────┼──────────────────────────────────────────────────────────────────────────────────────────────────────────────────────────────────┤
 | 0x0000000000000001 | 0x0000000000000001 | 0x0000000000000003 | 1           | 0 1 0 1 1 0 1 0 0 0 1 1 1 1 1 1 0 0 0 0 0 0 0 0 0 0 0 1 1 1 0 0 0 0 0 0 0 0 1 0 0 1 0 0 0 0 0 0 0 1 1 1 0 0 0 0 0 1 1 1 0 1 0 0  |
 ├────────────────────┼────────────────────┼────────────────────┼─────────────┼──────────────────────────────────────────────────────────────────────────────────────────────────────────────────────────────────┤
 | 0x0000000000000000 | 0x000000000000000a | 0x000000000000000b | 0           | 0 0 0 0 0 0 0 0 0 0 1 1 0 0 0 0 0 0 1 0 0 0 0 0 0 0 0 0 0 0 0 1 0 1 0 0 0 1 0 0 0 0 0 0 0 0 0 0 0 0 1 1 1 1 1 0 0 0 0 0 0 0 0 0  |
 ├────────────────────┼────────────────────┼────────────────────┼─────────────┼──────────────────────────────────────────────────────────────────────────────────────────────────────────────────────────────────┤
 | 0x0000000000000002 | 0x0000000000000002 | 0x0000000000000003 | 0           | 0 0 1 1 0 0 0 0 0 0 0 0 0 1 0 0 0 0 0 0 0 1 1 1 0 0 0 0 0 1 1 1 1 0 0 0 0 0 0 0 0 1 0 0 0 0 0 0 0 0 0 0 0 0 1 0 0 0 0 0 1 0 0 0  |
 ├────────────────────┼────────────────────┼────────────────────┼─────────────┼──────────────────────────────────────────────────────────────────────────────────────────────────────────────────────────────────┤
 | 0x0000000000000000 | 0x0000000000000002 | 0x0000000000000003 | 0           | 0 0 1 1 0 0 0 0 0 0 0 0 0 1 0 0 0 0 0 0 0 1 1 1 0 0 0 0 0 1 1 1 1 0 0 0 0 0 0 0 0 1 0 0 0 0 0 0 0 0 0 0 0 0 1 0 0 0 0 0 1 0 0 0  |
 ├────────────────────┼────────────────────┼────────────────────┼─────────────┼──────────────────────────────────────────────────────────────────────────────────────────────────────────────────────────────────┤
 | 0x0000000000000000 | 0x0000000000000001 | 0x0000000000000004 | 1           | 0 1 0 0 1 1 1 0 1 1 1 1 0 1 1 1 1 1 1 1 1 1 0 1 0 1 1 1 1 0 1 1 1 1 1 0 1 0 1 1 1 0 1 0 1 1 1 1 1 1 1 1 1 1 0 1 1 1 1 1 1 1 1 1  |
 ├────────────────────┼────────────────────┼────────────────────┼─────────────┼──────────────────────────────────────────────────────────────────────────────────────────────────────────────────────────────────┤
 | 0x0000000000000000 | 0x0000000000000009 | 0x000000000000000c | 1           | 0 0 0 0 0 0 0 0 0 1 0 0 1 0 0 0 0 0 0 0 0 1 1 0 0 0 0 0 1 1 1 0 1 0 0 0 1 1 1 1 1 1 0 0 1 1 1 1 1 1 0 0 0 0 0 0 0 1 1 1 0 0 0 0  |
 ├────────────────────┼────────────────────┼────────────────────┼─────────────┼──────────────────────────────────────────────────────────────────────────────────────────────────────────────────────────────────┤
 | 0x0000000000000000 | 0x0000000000000003 | 0x0000000000000004 | 0           | 0 0 0 1 1 0 0 0 0 0 0 0 0 1 1 0 0 0 0 0 0 0 0 0 0 0 0 0 1 0 0 0 0 0 0 0 0 0 0 1 0 0 0 0 0 0 0 1 1 1 0 0 0 0 0 0 0 1 1 1 0 0 0 0  |
 ├────────────────────┼────────────────────┼────────────────────┼─────────────┼──────────────────────────────────────────────────────────────────────────────────────────────────────────────────────────────────┤
 | 0x0000000000000000 | 0x0000000000000000 | 0x0000000000000004 | 1           | 1 0 0 0 1 1 1 1 0 1 0 0 0 0 0 1 0 0 0 0 0 0 0 0 0 0 0 0 1 1 1 1 1 1 1 0 0 1 1 0 0 0 0 0 1 1 1 1 1 1 1 1 1 0 0 0 0 0 0 0 0 0 1 0  |
 ├────────────────────┼────────────────────┼────────────────────┼─────────────┼──────────────────────────────────────────────────────────────────────────────────────────────────────────────────────────────────┤
 | 0x0000000000000009 | 0x0000000000000009 | 0x000000000000000c | 1           | 0 0 0 0 0 0 0 0 0 1 0 0 1 0 0 0 0 0 0 0 0 1 1 0 0 0 0 0 1 1 1 0 1 0 0 0 1 1 1 1 1 1 0 0 1 1 1 1 1 1 0 0 0 0 0 0 0 1 1 1 0 0 0 0  |
 ├────────────────────┼────────────────────┼────────────────────┼─────────────┼──────────────────────────────────────────────────────────────────────────────────────────────────────────────────────────────────┤
 | 0x0000000000000003 | 0x0000000000000003 | 0x0000000000000004 | 0           | 0 0 0 1 1 0 0 0 0 0 0 0 0 1 1 0 0 0 0 0 0 0 0 0 0 0 0 0 1 0 0 0 0 0 0 0 0 0 0 1 0 0 0 0 0 0 0 1 1 1 0 0 0 0 0 0 0 1 1 1 0 0 0 0  |
 ├────────────────────┼────────────────────┼────────────────────┼─────────────┼──────────────────────────────────────────────────────────────────────────────────────────────────────────────────────────────────┤
 | 0x0000000000000000 | 0x000000000000000b | 0x000000000000000c | 1           | 0 0 0 0 0 0 0 0 0 0 0 1 1 1 1 1 1 1 1 1 0 1 0 0 0 0 0 0 1 1 1 1 1 1 1 0 0 0 0 0 1 1 1 1 1 1 1 1 1 0 0 0 0 0 0 0 0 0 0 0 0 0 0 1  |
 ├────────────────────┼────────────────────┼────────────────────┼─────────────┼──────────────────────────────────────────────────────────────────────────────────────────────────────────────────────────────────┤
 | 0x0000000000000001 | 0x0000000000000001 | 0x0000000000000004 | 1           | 0 1 0 0 1 1 1 0 1 1 1 1 1 1 1 1 1 1 1 1 1 1 0 1 1 1 1 1 1 1 1 1 1 1 1 1 1 1 1 1 1 1 1 0 1 1 1 1 1 1 1 1 1 1 1 1 1 1 1 1 1 1 1 1  |
 ├────────────────────┼────────────────────┼────────────────────┼─────────────┼──────────────────────────────────────────────────────────────────────────────────────────────────────────────────────────────────┤
 | 0x0000000000000004 | 0x0000000000000004 | 0x0000000000000005 | 0           | 0 0 0 0 1 1 0 0 0 0 1 1 1 0 0 0 0 0 0 0 0 0 0 1 1 1 0 0 1 1 1 1 1 1 0 0 0 0 0 0 0 1 1 0 0 0 0 0 1 1 1 0 1 1 1 0 0 0 0 0 0 0 1 1  |
 ├────────────────────┼────────────────────┼────────────────────┼─────────────┼──────────────────────────────────────────────────────────────────────────────────────────────────────────────────────────────────┤
 | 0x0000000000000013 | 0x0000000000000023 | 0x0000000000000025 | 1           | 0 0 0 0 0 0 0 0 0 0 0 0 0 0 0 0 0 0 0 0 0 0 0 0 0 0 0 0 0 0 0 0 0 0 0 1 0 1 0 1 0 0 0 0 0 0 0 0 0 0 0 0 0 0 0 0 0 0 0 0 0 0 0 0  |
 ├────────────────────┼────────────────────┼────────────────────┼─────────────┼──────────────────────────────────────────────────────────────────────────────────────────────────────────────────────────────────┤
 | 0x0000000000000000 | 0x0000000000000003 | 0x000000000000000d | 1           | 0 0 0 1 0 0 0 0 0 0 0 0 0 1 0 0 0 0 0 0 0 1 1 1 1 1 0 0 0 0 0 0 0 0 1 0 0 0 0 0 0 0 0 0 0 0 0 1 1 0 0 0 0 0 0 0 0 1 1 0 0 0 0 0  |
 ├────────────────────┼────────────────────┼────────────────────┼─────────────┼──────────────────────────────────────────────────────────────────────────────────────────────────────────────────────────────────┤
 | 0x0000000000000000 | 0x0000000000000004 | 0x0000000000000005 | 0           | 0 0 0 0 1 1 0 0 0 0 1 1 1 0 0 0 0 0 0 0 0 0 0 1 1 1 0 0 1 1 1 1 1 1 0 0 0 0 0 0 0 1 1 0 0 0 0 0 1 1 1 0 1 1 1 0 0 0 0 0 0 0 1 1  |
 ├────────────────────┼────────────────────┼────────────────────┼─────────────┼──────────────────────────────────────────────────────────────────────────────────────────────────────────────────────────────────┤
 | 0x0000000000000003 | 0x0000000000000003 | 0x000000000000000d | 1           | 0 0 0 1 0 0 0 0 0 0 0 0 0 1 0 0 0 0 0 0 0 1 1 1 1 1 0 0 0 0 0 0 0 0 1 0 0 0 0 0 0 0 0 0 0 0 0 1 1 0 0 0 0 0 0 0 0 1 1 0 0 0 0 0  |
 ├────────────────────┼────────────────────┼────────────────────┼─────────────┼──────────────────────────────────────────────────────────────────────────────────────────────────────────────────────────────────┤
 | 0x0000000000000000 | 0x0000000000000000 | 0x0000000000000005 | 1           | 1 0 0 0 0 1 1 1 0 0 0 0 1 1 1 0 0 0 0 0 0 0 0 0 1 1 1 1 0 0 1 1 1 1 1 1 0 0 0 0 0 0 0 1 1 0 0 0 0 0 1 1 1 0 1 1 1 1 1 1 1 1 1 1  |
 ├────────────────────┼────────────────────┼────────────────────┼─────────────┼──────────────────────────────────────────────────────────────────────────────────────────────────────────────────────────────────┤
 | 0x0000000000000005 | 0x0000000000000005 | 0x000000000000000d | 1           | 0 0 0 0 0 1 0 0 0 0 0 0 0 1 0 0 0 0 0 0 0 0 0 0 0 0 1 0 0 0 0 0 0 0 0 1 1 0 0 0 0 0 0 0 1 0 0 0 0 0 0 0 0 0 0 0 0 1 1 0 0 0 1 1  |
 ├────────────────────┼────────────────────┼────────────────────┼─────────────┼──────────────────────────────────────────────────────────────────────────────────────────────────────────────────────────────────┤
 | 0x000000000000003f | 0x0000000000000004 | 0x0000000000000005 | 1           | 0 0 0 0 1 1 0 0 0 0 0 0 0 0 0 0 0 0 0 0 0 1 1 1 0 0 0 1 0 1 1 0 0 0 0 0 0 0 0 0 0 0 0 0 0 0 0 0 0 0 0 0 0 0 0 0 0 0 0 0 0 0 0 0  |
 ├────────────────────┼────────────────────┼────────────────────┼─────────────┼──────────────────────────────────────────────────────────────────────────────────────────────────────────────────────────────────┤
 | 0x0000000000000000 | 0x0000000000000000 | 0x000000000000000e | 2           | 1 0 0 0 0 0 0 0 0 0 0 0 0 0 1 0 0 0 0 0 0 0 0 1 1 0 0 0 0 0 0 1 1 0 0 0 0 0 0 0 0 0 0 1 0 0 0 0 0 0 0 0 0 0 0 0 1 1 1 1 0 0 0 0  |
 ├────────────────────┼────────────────────┼────────────────────┼─────────────┼──────────────────────────────────────────────────────────────────────────────────────────────────────────────────────────────────┤
 | 0x0000000000000000 | 0x0000000000000007 | 0x0000000000000006 | 1           | 0 0 0 0 0 0 1 1 1 0 0 0 0 0 0 0 0 1 0 0 1 0 0 0 0 0 0 0 0 1 1 0 0 0 0 0 1 1 1 0 1 0 0 0 1 1 1 1 1 0 0 0 1 1 1 1 1 0 0 0 0 0 0 0  |
 ├────────────────────┼────────────────────┼────────────────────┼─────────────┼──────────────────────────────────────────────────────────────────────────────────────────────────────────────────────────────────┤
 | 0x0000000000000000 | 0x0000000000000005 | 0x0000000000000006 | 0           | 0 0 0 0 0 1 1 0 0 0 0 0 1 1 1 0 0 0 0 0 0 0 0 0 0 0 1 1 0 0 0 0 0 0 0 0 0 0 0 0 1 1 0 0 0 0 0 0 0 0 1 0 0 0 0 0 0 0 0 1 1 1 0 0  |
 ├────────────────────┼────────────────────┼────────────────────┼─────────────┼──────────────────────────────────────────────────────────────────────────────────────────────────────────────────────────────────┤
 | 0x0000000000000001 | 0x0000000000000001 | 0x000000000000000e | 1           | 0 1 0 0 0 0 0 0 0 0 0 0 0 0 1 1 0 0 0 0 0 0 0 0 1 0 0 0 0 0 1 1 1 0 0 0 0 0 0 0 0 0 1 1 1 1 1 1 0 0 1 1 1 1 1 1 1 0 0 0 0 0 0 0  |
 ├────────────────────┼────────────────────┼────────────────────┼─────────────┼──────────────────────────────────────────────────────────────────────────────────────────────────────────────────────────────────┤
 | 0x0000000000000005 | 0x0000000000000005 | 0x0000000000000006 | 0           | 0 0 0 0 0 1 1 0 0 0 0 0 1 1 1 0 0 0 0 0 0 0 0 0 0 0 1 1 0 0 0 0 0 0 0 0 0 0 0 0 1 1 0 0 0 0 0 0 0 0 1 0 0 0 0 0 0 0 0 1 1 1 0 0  |
 ├────────────────────┼────────────────────┼────────────────────┼─────────────┼──────────────────────────────────────────────────────────────────────────────────────────────────────────────────────────────────┤
 | 0x0000000000000000 | 0x000000000000000e | 0x0000000000000016 | 1           | 0 0 0 0 0 0 0 0 0 0 0 0 0 0 1 0 0 0 0 0 0 0 1 1 1 0 0 0 1 1 1 1 1 1 0 0 0 0 0 0 0 0 1 1 1 0 0 0 0 1 1 1 1 0 0 0 0 0 0 0 0 0 1 0  |
 ├────────────────────┼────────────────────┼────────────────────┼─────────────┼──────────────────────────────────────────────────────────────────────────────────────────────────────────────────────────────────┤
 | 0x0000000000000007 | 0x0000000000000007 | 0x0000000000000006 | 1           | 0 0 0 0 0 0 1 1 1 0 0 0 0 0 0 0 0 1 0 0 1 0 0 0 0 0 0 0 0 1 1 0 0 0 0 0 1 1 1 0 1 0 0 0 1 1 1 1 1 0 0 0 1 1 1 1 1 0 0 0 0 0 0 0  |
 ├────────────────────┼────────────────────┼────────────────────┼─────────────┼──────────────────────────────────────────────────────────────────────────────────────────────────────────────────────────────────┤
 | 0x000000000000000e | 0x000000000000000e | 0x0000000000000016 | 1           | 0 0 0 0 0 0 0 0 0 0 0 0 0 0 1 0 0 0 0 0 0 0 1 1 1 0 0 0 1 1 1 1 1 1 0 0 0 0 0 0 0 0 1 1 1 0 0 0 0 1 1 1 1 0 0 0 0 0 0 0 0 0 1 0  |
 ├────────────────────┼────────────────────┼────────────────────┼─────────────┼──────────────────────────────────────────────────────────────────────────────────────────────────────────────────────────────────┤
 | 0x0000000000000006 | 0x0000000000000006 | 0x000000000000000f | 0           | 0 0 0 0 0 0 1 0 0 0 0 0 0 0 0 1 1 1 0 0 1 1 1 1 1 1 0 0 0 0 0 0 0 1 1 0 0 0 0 1 1 1 1 1 0 0 0 0 0 0 0 0 1 1 0 0 0 0 0 0 0 0 1 1  |
 ├────────────────────┼────────────────────┼────────────────────┼─────────────┼──────────────────────────────────────────────────────────────────────────────────────────────────────────────────────────────────┤
 | 0x0000000000000000 | 0x0000000000000006 | 0x000000000000000f | 0           | 0 0 0 0 0 0 1 0 0 0 0 0 0 0 0 1 1 1 0 0 1 1 1 1 1 1 0 0 0 0 0 0 0 1 1 0 0 0 0 1 1 1 1 1 0 0 0 0 0 0 0 0 1 1 0 0 0 0 0 0 0 0 1 1  |
 ├────────────────────┼────────────────────┼────────────────────┼─────────────┼──────────────────────────────────────────────────────────────────────────────────────────────────────────────────────────────────┤
 | 0x000000000000002c | 0x000000000000002e | 0x000000000000002f | 1           | 0 0 0 0 0 0 0 0 0 0 0 0 0 0 0 0 0 0 0 0 0 0 0 0 0 0 0 0 0 0 0 0 0 0 0 0 0 0 0 0 0 0 0 0 0 0 1 1 0 0 0 0 0 0 0 0 0 0 0 0 0 0 0 0  |
 ├────────────────────┼────────────────────┼────────────────────┼─────────────┼──────────────────────────────────────────────────────────────────────────────────────────────────────────────────────────────────┤
 | 0x0000000000000000 | 0x0000000000000005 | 0x000000000000000f | 1           | 0 0 0 0 0 1 0 0 0 0 0 0 0 0 0 1 0 0 0 0 0 0 0 1 1 1 1 1 1 1 0 0 0 0 0 0 0 0 1 0 0 0 0 0 0 0 0 0 0 0 0 1 1 0 0 0 0 0 0 0 0 1 0 0  |
 ├────────────────────┼────────────────────┼────────────────────┼─────────────┼──────────────────────────────────────────────────────────────────────────────────────────────────────────────────────────────────┤
 | 0x0000000000000005 | 0x0000000000000005 | 0x000000000000000f | 1           | 0 0 0 0 0 1 0 0 0 0 0 0 0 0 0 1 0 0 0 0 0 0 0 1 1 1 1 1 1 1 0 0 0 0 0 0 0 0 1 0 0 0 0 0 0 0 0 0 0 0 0 1 1 0 0 0 0 0 0 0 0 1 0 0  |
 ├────────────────────┼────────────────────┼────────────────────┼─────────────┼──────────────────────────────────────────────────────────────────────────────────────────────────────────────────────────────────┤
 | 0x0000000000000006 | 0x0000000000000006 | 0x0000000000000007 | 0           | 0 0 0 0 0 0 1 1 0 1 1 0 0 0 0 0 0 0 0 0 1 1 0 0 0 0 0 0 0 0 0 0 0 0 0 0 0 1 0 0 0 0 1 1 0 0 0 0 1 0 1 1 0 1 0 0 0 0 0 0 0 0 0 0  |
 ├────────────────────┼────────────────────┼────────────────────┼─────────────┼──────────────────────────────────────────────────────────────────────────────────────────────────────────────────────────────────┤
 | 0x0000000000000000 | 0x0000000000000006 | 0x0000000000000007 | 0           | 0 0 0 0 0 0 1 1 0 1 1 0 0 0 0 0 0 0 0 0 1 1 0 0 0 0 0 0 0 0 0 0 0 0 0 0 0 1 0 0 0 0 1 1 0 0 0 0 1 0 1 1 0 1 0 0 0 0 0 0 0 0 0 0  |
 ├────────────────────┼────────────────────┼────────────────────┼─────────────┼──────────────────────────────────────────────────────────────────────────────────────────────────────────────────────────────────┤
 | 0x0000000000000000 | 0x0000000000000000 | 0x0000000000000007 | 1           | 1 0 0 0 0 0 0 1 1 1 1 1 0 0 0 0 0 0 0 0 1 0 0 1 1 1 0 0 0 0 0 0 0 0 1 1 1 0 0 0 0 0 0 0 0 0 0 0 0 0 0 0 0 0 0 0 0 0 0 0 0 0 0 1  |
 └────────────────────┴────────────────────┴────────────────────┴─────────────┴──────────────────────────────────────────────────────────────────────────────────────────────────────────────────────────────────┘
Region transition table end
RTT stats (cpu 0):
  RTT lookups          : 21227153
  RTT hits             : 8022518
  RTT inserts          : 161948
  RTT updates          : 26460
  RTT used for prefetch: 5990030
  RTT skipped (low conf): 6431
  Gaze used RTT path   : 5990030
  Gaze fallback to PHT : 15237123
  Gaze no-prev events  : 1
  RTT hit rate         : 0.377937
cpu0_L2C
Num Con Filled: 103668
Num Con Useful: 62737 Useless:31027 Accuracy: 66.9095
LLC
